New "LoadShape.default" npts=24 interval=1 mult=[ 0.677 0.6256 0.6087 0.5833 0.58028 0.6025 0.657 0.7477 0.832 0.88 0.94 0.989 0.985 0.98 0.9898 0.999 1 0.958 0.936 0.913 0.876 0.876 0.828 0.756]
New "LoadShape.loadshape_1sec" npts=172800 sinterval=1 mult=[ 0.576829 0.576818 0.573724 0.573713 0.571104 0.571093 0.572004 0.571992 0.571603 0.571592 0.571547 0.571536 0.571524 0.571513 0.571502 0.566251 0.566241 0.56623 0.566219 0.566207 0.566196 0.566196 0.566184 0.566173 0.566162 0.56615 0.566139 0.566139 0.566128 0.566116 0.566105 0.566093 0.566094 0.566082 0.566071 0.566059 0.566048 0.566037 0.566037 0.566025 0.566014 0.566002 0.565991 0.565991 0.56598 0.565968 0.567292 0.567281 0.568601 0.568601 0.569918 0.568578 0.569895 0.568555 0.569872 0.568544 0.56986 0.568521 0.569838 0.569407 0.569422 0.569814 0.569399 0.569791 0.569376 0.569769 0.569365 0.569757 0.569342 0.569734 0.569468 0.569723 0.569604 0.5697 0.569689 0.569917 0.570068 0.570012 0.570163 0.570194 0.570238 0.570235 0.570223 0.570385 0.570374 0.570523 0.570511 0.570659 0.570659 0.570737 0.565161 0.565236 0.565225 0.565301 0.565301 0.565377 0.565365 0.565354 0.565343 0.565343 0.565331 0.56532 0.565309 0.565297 0.565286 0.565286 0.565275 0.565263 0.565252 0.565241 0.565229 0.565229 0.565218 0.565206 0.565195 0.565184 0.565184 0.565172 0.565161 0.56515 0.565138 0.565127 0.565127 0.565115 0.565104 0.565093 0.565081 0.565081 0.56507 0.565059 0.565047 0.565036 0.565025 0.565025 0.565013 0.566318 0.566306 0.567607 0.567606 0.567595 0.567583 0.567572 0.567561 0.567549 0.567549 0.567538 0.567526 0.567661 0.56765 0.567638 0.567638 0.567627 0.567616 0.567604 0.567593 0.567593 0.567581 0.56757 0.567558 0.567547 0.567536 0.567536 0.567524 0.567513 0.567501 0.56749 0.56749 0.567479 0.567467 0.567456 0.567444 0.567433 0.567433 0.567422 0.56741 0.567399 0.567387 0.567376 0.567376 0.567365 0.567353 0.567342 0.56733 0.56733 0.567319 0.567308 0.567296 0.567285 0.567273 0.567273 0.567262 0.567251 0.567239 0.567228 0.567228 0.567216 0.567205 0.567194 0.567182 0.567171 0.567171 0.567159 0.567148 0.567137 0.567125 0.567114 0.567114 0.567102 0.567091 0.56708 0.567068 0.567068 0.567057 0.567045 0.567034 0.567022 0.567011 0.567011 0.567 0.566988 0.566977 0.566965 0.566878 0.566867 0.566856 0.566844 0.566833 0.566821 0.566821 0.56681 0.566799 0.566787 0.566776 0.566764 0.566764 0.566753 0.566742 0.56673 0.566719 0.566719 0.566707 0.566696 0.566685 0.566673 0.566662 0.566662 0.56665 0.566639 0.566628 0.566616 0.566616 0.566605 0.566593 0.566582 0.566571 0.566559 0.566559 0.566548 0.566536 0.566525 0.566514 0.566514 0.566502 0.566491 0.566479 0.566468 0.566456 0.566457 0.566445 0.566434 0.566422 0.566411 0.566399 0.566399 0.566388 0.566377 0.566365 0.566354 0.566354 0.566342 0.566331 0.56632 0.566308 0.566297 0.566297 0.566285 0.566274 0.566263 0.566251 0.566251 0.56624 0.566228 0.566217 0.566206 0.566194 0.566194 0.566183 0.566171 0.56616 0.566148 0.566137 0.566137 0.566126 0.566114 0.566103 0.566091 0.566091 0.56608 0.566069 0.566057 0.566046 0.566034 0.566034 0.566023 0.566012 0.566 0.565989 0.565989 0.565977 0.565966 0.565955 0.565943 0.565932 0.565932 0.56592 0.565909 0.565898 0.565886 0.565875 0.565875 0.565863 0.565852 0.565841 0.565829 0.565829 0.565818 0.565806 0.565795 0.565784 0.565772 0.565772 0.565761 0.565749 0.565738 0.565726 0.565727 0.565715 0.565704 0.565692 0.565681 0.565669 0.565669 0.565658 0.565647 0.565635 0.565624 0.565612 0.565612 0.565601 0.56559 0.565578 0.565567 0.565567 0.565555 0.565544 0.565533 0.565521 0.56551 0.56551 0.565498 0.565487 0.565476 0.565464 0.565464 0.565453 0.565441 0.56543 0.565419 0.565407 0.565407 0.565396 0.565384 0.565373 0.565362 0.565362 0.56535 0.565339 0.565327 0.565316 0.565304 0.565304 0.565293 0.565282 0.56527 0.565259 0.565247 0.565247 0.565236 0.565225 0.565213 0.565202 0.565202 0.56519 0.565179 0.565168 0.565156 0.565145 0.565145 0.565133 0.565122 0.56511 0.565099 0.565099 0.565088 0.565076 0.565065 0.565053 0.565042 0.565042 0.565031 0.565019 0.565008 0.564996 0.564985 0.564985 0.564974 0.564962 0.564951 0.564939 0.564939 0.564928 0.564917 0.564905 0.564894 0.564882 0.564882 0.564871 0.56486 0.564848 0.564837 0.564837 0.564825 0.564814 0.564803 0.564791 0.56478 0.56478 0.564768 0.564757 0.564745 0.564734 0.564723 0.564723 0.564711 0.5647 0.564688 0.564677 0.564677 0.564666 0.564654 0.564643 0.564631 0.56462 0.56462 0.564609 0.564597 0.564586 0.564574 0.564574 0.564563 0.564551 0.56454 0.564529 0.564517 0.564517 0.564506 0.564494 0.564483 0.564472 0.56446 0.56446 0.564449 0.564437 0.564426 0.564415 0.564415 0.564403 0.564392 0.56438 0.564369 0.564358 0.564358 0.564346 0.564335 0.564323 0.564312 0.564312 0.564301 0.564289 0.564278 0.564266 0.564255 0.564255 0.564243 0.564232 0.564221 0.564209 0.564209 0.564198 0.564186 0.564175 0.564164 0.564152 0.564152 0.564141 0.564129 0.564118 0.564107 0.564095 0.564095 0.564084 0.564072 0.564061 0.564049 0.56405 0.564038 0.564027 0.564015 0.564004 0.563992 0.563992 0.563981 0.56397 0.563958 0.563947 0.563947 0.563935 0.563924 0.563913 0.563901 0.56389 0.56389 0.563878 0.563867 0.563856 0.563844 0.563833 0.563833 0.563821 0.56381 0.563799 0.563787 0.563787 0.563776 0.563764 0.563753 0.563741 0.56373 0.56373 0.563719 0.563707 0.563696 0.563684 0.563684 0.563673 0.563662 0.56365 0.563639 0.563627 0.563627 0.563616 0.563604 0.563593 0.563582 0.56357 0.56357 0.563559 0.563547 0.563536 0.563525 0.563525 0.563513 0.563502 0.56349 0.563479 0.563468 0.563468 0.563456 0.563445 0.563433 0.563422 0.563422 0.563411 0.563399 0.563388 0.563376 0.563365 0.563365 0.563354 0.563342 0.563331 0.563319 0.563308 0.563308 0.563296 0.563285 0.563274 0.563262 0.563262 0.563251 0.563239 0.563228 0.563217 0.563205 0.563205 0.563194 0.563182 0.563171 0.563159 0.56316 0.563148 0.563137 0.563125 0.563114 0.563102 0.563102 0.563091 0.56308 0.563068 0.563057 0.563057 0.563045 0.563034 0.563023 0.563011 0.563 0.563 0.562988 0.562977 0.562966 0.562954 0.562943 0.562943 0.562931 0.56292 0.562908 0.562897 0.562897 0.562886 0.562874 0.562863 0.562851 0.56284 0.56284 0.562829 0.562817 0.562806 0.562794 0.562794 0.562783 0.562772 0.56276 0.562749 0.562737 0.562737 0.562726 0.562714 0.562703 0.562692 0.56268 0.56268 0.562669 0.562657 0.562646 0.562635 0.562635 0.562623 0.562612 0.5626 0.562589 0.562578 0.562578 0.562566 0.562555 0.562543 0.562532 0.562532 0.56252 0.562509 0.562498 0.562486 0.562475 0.562475 0.562463 0.562452 0.562441 0.562429 0.562418 0.562418 0.562406 0.562395 0.562384 0.562372 0.562372 0.562361 0.562349 0.562338 0.562326 0.562315 0.562315 0.562304 0.562292 0.562281 0.562269 0.562269 0.562258 0.562247 0.562235 0.562224 0.562212 0.562212 0.562201 0.56219 0.562178 0.562167 0.562155 0.562155 0.562144 0.562132 0.562121 0.56211 0.56211 0.562098 0.562087 0.562075 0.562064 0.562053 0.562053 0.562041 0.56203 0.562018 0.562007 0.562007 0.561995 0.561984 0.561973 0.561961 0.56195 0.56195 0.561938 0.561927 0.561916 0.561904 0.561904 0.561893 0.561881 0.56187 0.561858 0.561847 0.561847 0.561836 0.561824 0.561813 0.561802 0.56179 0.56179 0.561779 0.561767 0.561756 0.561744 0.561744 0.561733 0.561722 0.56171 0.561699 0.561687 0.561687 0.561676 0.561665 0.561653 0.561642 0.561642 0.56163 0.561619 0.561607 0.561596 0.561585 0.561585 0.561573 0.561562 0.56155 0.561539 0.561527 0.561528 0.561516 0.561505 0.561493 0.561482 0.561482 0.56147 0.561459 0.561448 0.561436 0.561425 0.561425 0.561413 0.561402 0.561391 0.561379 0.561379 0.561368 0.561356 0.561345 0.561334 0.561322 0.561322 0.561311 0.561299 0.561288 0.561276 0.561265 0.561265 0.561254 0.561242 0.561231 0.561219 0.561219 0.561208 0.561197 0.561185 0.561174 0.561162 0.561162 0.561151 0.561139 0.561128 0.561117 0.561117 0.561105 0.561094 0.561082 0.561071 0.56106 0.56106 0.561048 0.561037 0.561025 0.561014 0.561003 0.561003 0.560991 0.56098 0.560968 0.560957 0.560957 0.560945 0.560934 0.560923 0.560911 0.5609 0.5609 0.560888 0.560877 0.560865 0.560854 0.560854 0.560843 0.560831 0.56082 0.560808 0.560797 0.560797 0.560786 0.560774 0.560763 0.560751 0.560751 0.56074 0.560728 0.560717 0.560706 0.560694 0.560694 0.560683 0.560671 0.56066 0.560649 0.560637 0.560637 0.560626 0.560614 0.560603 0.560592 0.560592 0.56058 0.560569 0.560557 0.560546 0.560534 0.560534 0.560512 0.5605 0.560477 0.560466 0.560443 0.560432 0.560409 0.560397 0.560375 0.560363 0.56034 0.560329 0.560306 0.560283 0.560272 0.560249 0.560238 0.560215 0.560203 0.560181 0.560169 0.560146 0.560135 0.560112 0.560101 0.560078 0.560066 0.560044 0.560032 0.560009 0.559998 0.559975 0.559964 0.559941 0.559929 0.559907 0.559895 0.559872 0.559861 0.559838 0.559827 0.559804 0.559792 0.559769 0.559758 0.559735 0.559724 0.559701 0.55969 0.559667 0.559655 0.559633 0.559621 0.559598 0.559587 0.559564 0.559553 0.55953 0.559518 0.559495 0.559484 0.559461 0.55945 0.559427 0.559416 0.559393 0.559381 0.559359 0.559336 0.559324 0.559301 0.55929 0.559267 0.559256 0.559233 0.559222 0.559199 0.559187 0.559164 0.559153 0.55913 0.559119 0.559096 0.559084 0.559062 0.55905 0.559027 0.559016 0.558993 0.558982 0.558959 0.558948 0.558925 0.558913 0.55889 0.558879 0.558856 0.558845 0.558822 0.55881 0.558788 0.558776 0.558753 0.558742 0.558719 0.558708 0.558685 0.558673 0.558651 0.558639 0.558616 0.558605 0.558582 0.558571 0.558548 0.558536 0.558513 0.558502 0.558479 0.558468 0.558445 0.558434 0.558411 0.558399 0.558377 0.558354 0.558342 0.558319 0.558308 0.558285 0.558274 0.558251 0.558239 0.558217 0.558205 0.558182 0.558171 0.558148 0.558137 0.558114 0.558103 0.55808 0.558068 0.558045 0.558034 0.558011 0.558 0.557977 0.557965 0.557943 0.557931 0.557908 0.557897 0.557874 0.557863 0.55784 0.557828 0.557806 0.557794 0.557771 0.55776 0.557737 0.557726 0.557703 0.557691 0.557668 0.557657 0.557634 0.557623 0.5576 0.557589 0.557566 0.557554 0.557531 0.55752 0.557497 0.557486 0.557463 0.557452 0.557429 0.557406 0.557308 0.557285 0.557273 0.557251 0.557239 0.557216 0.557205 0.557182 0.557171 0.557148 0.557136 0.557114 0.557102 0.557079 0.557068 0.557045 0.557034 0.557011 0.556999 0.556976 0.556965 0.556942 0.556931 0.556908 0.556897 0.556874 0.556862 0.556839 0.556828 0.556805 0.556794 0.556771 0.55676 0.556737 0.556725 0.556702 0.556691 0.556668 0.556657 0.556634 0.556622 0.5566 0.556588 0.556565 0.556554 0.556531 0.55652 0.556497 0.556485 0.556463 0.556451 0.556428 0.556417 0.556394 0.556371 0.55636 0.556337 0.556325 0.556303 0.556291 0.556268 0.556257 0.556234 0.556223 0.5562 0.556188 0.556166 0.556154 0.556131 0.55612 0.556097 0.556086 0.556063 0.556051 0.556028 0.556017 0.555994 0.555983 0.55596 0.555949 0.555926 0.555914 0.555891 0.55588 0.555857 0.555846 0.555823 0.555811 0.555789 0.555777 0.555754 0.555743 0.55572 0.555709 0.555686 0.555674 0.555652 0.55564 0.555617 0.555606 0.555583 0.555572 0.555549 0.555537 0.555514 0.555503 0.55548 0.555469 0.555446 0.555423 0.555412 0.555389 0.555377 0.555355 0.555343 0.55532 0.555309 0.555286 0.555275 0.555252 0.55524 0.555217 0.555206 0.555183 0.555172 0.555149 0.555138 0.555115 0.555103 0.55508 0.555069 0.555046 0.555035 0.555012 0.555 0.554977 0.554966 0.554943 0.554932 0.554909 0.554898 0.554875 0.554863 0.55484 0.554829 0.554806 0.554795 0.554772 0.55476 0.554738 0.554726 0.554703 0.554692 0.554669 0.554658 0.554635 0.554623 0.554601 0.554589 0.554566 0.554555 0.554532 0.554521 0.554498 0.554475 0.554463 0.554441 0.554429 0.554406 0.554395 0.554372 0.554361 0.554338 0.554326 0.554303 0.554292 0.554269 0.554258 0.554235 0.554223 0.554201 0.554189 0.554166 0.554155 0.554132 0.554121 0.554098 0.554086 0.554064 0.554052 0.554029 0.554018 0.553995 0.553984 0.553961 0.553949 0.553926 0.553915 0.553892 0.553881 0.553858 0.553846 0.553824 0.553812 0.553789 0.553778 0.553755 0.553744 0.553721 0.553709 0.553687 0.553675 0.553652 0.553641 0.553618 0.553607 0.553584 0.553572 0.553549 0.553538 0.553515 0.553492 0.553481 0.553458 0.553447 0.553424 0.553412 0.553389 0.553378 0.553355 0.553344 0.553321 0.553309 0.553286 0.553275 0.553252 0.553241 0.553218 0.553207 0.553184 0.553172 0.553149 0.553138 0.553115 0.553104 0.553081 0.553069 0.553047 0.553035 0.553012 0.553001 0.552978 0.552967 0.552944 0.552932 0.552909 0.552898 0.552875 0.552864 0.552841 0.552829 0.552807 0.552795 0.552772 0.552761 0.552738 0.552727 0.552704 0.552692 0.552669 0.552658 0.552635 0.552624 0.552601 0.552589 0.552567 0.552544 0.552532 0.552509 0.552498 0.552475 0.552464 0.552441 0.552429 0.552407 0.552395 0.552372 0.552361 0.552338 0.552327 0.552304 0.552292 0.552269 0.552258 0.552235 0.552224 0.552201 0.552189 0.552167 0.552155 0.552132 0.552121 0.552098 0.552087 0.552064 0.552052 0.552029 0.552018 0.551995 0.551984 0.551961 0.551949 0.551927 0.551915 0.551892 0.551881 0.551858 0.551847 0.551824 0.551812 0.551789 0.551778 0.551755 0.551744 0.551721 0.551709 0.551687 0.551675 0.551652 0.551641 0.551618 0.551595 0.551584 0.551561 0.551549 0.551526 0.551515 0.551492 0.551481 0.551458 0.551447 0.551424 0.551412 0.551389 0.551378 0.551355 0.551344 0.551321 0.551309 0.551286 0.551275 0.551252 0.551241 0.551218 0.551207 0.551184 0.551172 0.551149 0.551138 0.551115 0.551104 0.551081 0.551069 0.551046 0.551035 0.551012 0.551001 0.550978 0.550966 0.550944 0.550932 0.550909 0.550898 0.550875 0.550864 0.550841 0.550829 0.550806 0.550795 0.550772 0.550761 0.550738 0.550726 0.550703 0.550692 0.550669 0.550646 0.550635 0.550612 0.550601 0.550578 0.550566 0.550543 0.550532 0.550509 0.550498 0.550475 0.550463 0.550441 0.550429 0.550406 0.550395 0.550372 0.550361 0.550338 0.550326 0.550303 0.550292 0.550269 0.550258 0.550235 0.550223 0.5502 0.550189 0.550166 0.550155 0.550132 0.55012 0.550098 0.550086 0.550063 0.550052 0.550029 0.550018 0.549995 0.549983 0.54996 0.549949 0.549926 0.549915 0.549892 0.54988 0.549857 0.549846 0.549823 0.549812 0.549789 0.549778 0.549755 0.549743 0.54972 0.549697 0.549686 0.549663 0.549652 0.549629 0.549617 0.549595 0.549583 0.54956 0.549549 0.549526 0.549515 0.549492 0.54948 0.549457 0.549446 0.549423 0.549412 0.549389 0.549377 0.549354 0.549343 0.54932 0.549309 0.549286 0.549274 0.549251 0.54924 0.549217 0.549206 0.549183 0.549172 0.549149 0.549137 0.549114 0.549103 0.54908 0.549069 0.549046 0.549034 0.549011 0.549 0.548977 0.548966 0.548943 0.548931 0.548908 0.548897 0.548874 0.548863 0.54884 0.548828 0.548806 0.548794 0.548771 0.54876 0.548737 0.548714 0.548703 0.54868 0.548668 0.548645 0.548634 0.548611 0.5486 0.548577 0.548565 0.548543 0.548531 0.548508 0.548497 0.548474 0.548462 0.54844 0.548428 0.548405 0.548394 0.548371 0.54836 0.548337 0.548325 0.548302 0.548291 0.548268 0.548257 0.548234 0.548222 0.548199 0.548188 0.548165 0.548154 0.548131 0.548119 0.548097 0.548085 0.548062 0.548051 0.548028 0.548017 0.547994 0.547982 0.547959 0.547948 0.547925 0.547914 0.547891 0.547879 0.547856 0.547845 0.547822 0.547811 0.547788 0.547765 0.547753 0.547731 0.547719 0.547696 0.547685 0.547662 0.547651 0.547628 0.547616 0.547593 0.547582 0.547559 0.547548 0.547525 0.547513 0.54749 0.547479 0.547456 0.547445 0.547422 0.54741 0.547387 0.547376 0.547353 0.547342 0.547319 0.547307 0.547285 0.547273 0.54725 0.547239 0.547216 0.547204 0.547182 0.54717 0.547147 0.547136 0.547113 0.547102 0.547079 0.547067 0.547044 0.547033 0.54701 0.546999 0.546976 0.546964 0.546941 0.54693 0.546907 0.546896 0.546873 0.546861 0.546838 0.546816 0.546804 0.546781 0.54677 0.546747 0.546736 0.546713 0.546701 0.546678 0.546667 0.546644 0.546633 0.54661 0.546598 0.546575 0.546564 0.546541 0.54653 0.546507 0.546495 0.546472 0.546461 0.546438 0.546427 0.546404 0.546392 0.546369 0.546358 0.546335 0.546324 0.546301 0.546289 0.546267 0.546255 0.546232 0.546221 0.546198 0.546186 0.546164 0.546152 0.546129 0.546118 0.546095 0.546084 0.546061 0.546049 0.546026 0.546015 0.545992 0.545981 0.545958 0.545946 0.545923 0.545912 0.545889 0.545866 0.545855 0.545832 0.54582 0.545797 0.545786 0.545763 0.545752 0.545729 0.545717 0.545695 0.545683 0.54566 0.545649 0.545626 0.545614 0.545592 0.54558 0.545557 0.545546 0.545523 0.545511 0.545489 0.545477 0.545454 0.545443 0.54542 0.545409 0.545386 0.545374 0.545351 0.54534 0.545317 0.545306 0.545283 0.545271 0.545248 0.545237 0.545214 0.545203 0.54518 0.545168 0.545145 0.545134 0.545111 0.5451 0.545077 0.545065 0.545042 0.545031 0.545008 0.544997 0.544974 0.544962 0.544939 0.544928 0.544905 0.544894 0.544882 0.544871 0.544859 0.544848 0.544836 0.544813 0.544802 0.544791 0.544779 0.544768 0.544756 0.544745 0.544722 0.544711 0.544699 0.544688 0.544676 0.544665 0.544653 0.54463 0.544619 0.544608 0.544596 0.544585 0.544573 0.544562 0.544539 0.544528 0.544516 0.544505 0.544493 0.544482 0.54447 0.544447 0.544436 0.544425 0.544413 0.544402 0.54439 0.544379 0.544356 0.544344 0.544333 0.544322 0.54431 0.544299 0.544287 0.544264 0.544253 0.544241 0.54423 0.544219 0.544207 0.544196 0.544173 0.544161 0.54415 0.544138 0.544127 0.544116 0.544104 0.544093 0.54407 0.544058 0.544047 0.544035 0.544024 0.544013 0.544001 0.543978 0.543967 0.543955 0.543944 0.543933 0.543921 0.54391 0.543887 0.543875 0.543864 0.543852 0.543841 0.543829 0.543818 0.543795 0.543784 0.543772 0.543761 0.543749 0.543738 0.543726 0.543704 0.543692 0.543681 0.543669 0.543658 0.543646 0.543635 0.543612 0.543601 0.543589 0.543578 0.543566 0.543555 0.543543 0.54352 0.543509 0.543498 0.543486 0.543475 0.543463 0.543452 0.543429 0.543417 0.543406 0.543395 0.543383 0.543372 0.54336 0.543349 0.543326 0.543314 0.543303 0.543292 0.54328 0.543269 0.543257 0.543234 0.543223 0.543211 0.5432 0.543189 0.543177 0.543166 0.543143 0.543131 0.54312 0.543108 0.543097 0.543086 0.543074 0.543051 0.54304 0.543028 0.543017 0.543005 0.542994 0.542983 0.54296 0.542948 0.542937 0.542925 0.542914 0.542902 0.542891 0.542868 0.542857 0.542845 0.542834 0.542822 0.542811 0.542799 0.542777 0.542765 0.542754 0.542742 0.542731 0.542719 0.542708 0.542685 0.542674 0.542662 0.542651 0.542639 0.542628 0.542616 0.542605 0.542582 0.54257 0.542559 0.542548 0.542536 0.542525 0.542513 0.54249 0.542479 0.542468 0.542456 0.542445 0.542433 0.542422 0.542399 0.542387 0.542376 0.542365 0.542353 0.542342 0.54233 0.542307 0.542296 0.542284 0.542273 0.542261 0.54225 0.542239 0.542216 0.542204 0.542193 0.542181 0.54217 0.542158 0.542147 0.542124 0.542113 0.542101 0.54209 0.542078 0.542067 0.542055 0.542033 0.542021 0.54201 0.541998 0.541987 0.541975 0.541964 0.541941 0.54193 0.541918 0.541907 0.541895 0.541884 0.541872 0.541849 0.541838 0.541826 0.541815 0.541804 0.541792 0.541781 0.541769 0.541746 0.541735 0.541723 0.541712 0.541701 0.541689 0.541678 0.541655 0.541643 0.541632 0.54162 0.541609 0.541598 0.541586 0.541563 0.541552 0.54154 0.541529 0.541517 0.541506 0.541495 0.541472 0.54146 0.541449 0.541437 0.541426 0.541414 0.541403 0.54138 0.541369 0.541357 0.541346 0.541334 0.541323 0.541311 0.541288 0.541277 0.541266 0.541254 0.541243 0.541231 0.54122 0.541197 0.541185 0.541174 0.541163 0.541151 0.54114 0.541128 0.541105 0.541094 0.541082 0.541071 0.541059 0.541048 0.541037 0.541025 0.541002 0.540991 0.540979 0.540968 0.540956 0.540945 0.540934 0.540911 0.540899 0.540888 0.540876 0.540865 0.540853 0.540842 0.540819 0.540808 0.540796 0.540785 0.540773 0.540762 0.54075 0.540727 0.540716 0.540705 0.540693 0.540682 0.54067 0.540659 0.540636 0.540624 0.540613 0.540602 0.54059 0.540579 0.540567 0.540544 0.540533 0.540521 0.54051 0.540498 0.540487 0.540476 0.540453 0.540441 0.54043 0.540418 0.540407 0.540395 0.540384 0.540361 0.54035 0.540338 0.540327 0.540315 0.540304 0.540292 0.540281 0.540258 0.540247 0.540235 0.540224 0.540212 0.540201 0.540189 0.540166 0.540155 0.540144 0.540132 0.540121 0.540109 0.540098 0.540075 0.540063 0.540052 0.540041 0.540029 0.540018 0.540006 0.539983 0.539972 0.53996 0.539949 0.539937 0.539926 0.539915 0.539892 0.53988 0.539869 0.539857 0.539846 0.539834 0.539823 0.5398 0.539789 0.539777 0.539766 0.539754 0.539743 0.539731 0.539708 0.539697 0.539686 0.539674 0.539663 0.539651 0.53964 0.539617 0.539605 0.539594 0.539582 0.539571 0.53956 0.539548 0.539525 0.539514 0.539502 0.539491 0.539479 0.539468 0.539457 0.539445 0.539422 0.539411 0.539399 0.539388 0.539376 0.539365 0.539353 0.539331 0.539319 0.539308 0.539296 0.539285 0.539273 0.539262 0.539239 0.539227 0.539216 0.539205 0.539193 0.539182 0.53917 0.539147 0.539136 0.539124 0.539113 0.539101 0.53909 0.539079 0.539056 0.539044 0.539033 0.539021 0.53901 0.538998 0.538987 0.538964 0.538953 0.538941 0.53893 0.538918 0.538907 0.538895 0.538872 0.538861 0.53885 0.538838 0.538827 0.538815 0.538804 0.538781 0.538769 0.538758 0.538746 0.538735 0.538724 0.538712 0.538701 0.538678 0.538666 0.538655 0.538643 0.538632 0.538621 0.538609 0.538586 0.538575 0.538563 0.538552 0.53854 0.538529 0.538517 0.538494 0.538483 0.538472 0.53846 0.538449 0.538437 0.538426 0.538403 0.538391 0.53838 0.538369 0.538357 0.538346 0.538334 0.538311 0.5383 0.538288 0.538277 0.538266 0.538254 0.538243 0.53822 0.538208 0.538197 0.538185 0.538174 0.538162 0.538151 0.538128 0.538117 0.538105 0.538094 0.538082 0.538071 0.538059 0.538036 0.538025 0.538013 0.538002 0.537991 0.537979 0.537968 0.537956 0.537933 0.537922 0.53791 0.537899 0.537887 0.537876 0.537865 0.537842 0.53783 0.537819 0.537807 0.537796 0.537784 0.537773 0.53775 0.537739 0.537727 0.537716 0.537704 0.537693 0.537681 0.537658 0.537647 0.537635 0.537624 0.537613 0.537601 0.53759 0.537567 0.537555 0.537544 0.537532 0.537521 0.537509 0.537498 0.537475 0.537464 0.537452 0.537441 0.537429 0.537418 0.537406 0.537383 0.537372 0.537361 0.537349 0.537338 0.537326 0.537315 0.537292 0.53728 0.537269 0.537257 0.537246 0.537235 0.537223 0.537212 0.537189 0.537177 0.537166 0.537154 0.537143 0.537131 0.53712 0.537097 0.537086 0.537074 0.537063 0.537051 0.53704 0.537028 0.537005 0.536994 0.536982 0.536971 0.53696 0.536948 0.536937 0.536914 0.536902 0.536891 0.536879 0.536868 0.536856 0.536845 0.536822 0.536811 0.536799 0.536788 0.536776 0.536765 0.536753 0.53673 0.536719 0.536708 0.536696 0.536685 0.536673 0.536662 0.536639 0.536627 0.536616 0.536604 0.536593 0.536582 0.53657 0.536547 0.536536 0.536524 0.536513 0.536501 0.53649 0.536478 0.536456 0.536444 0.536433 0.536421 0.53641 0.536398 0.536387 0.536375 0.536352 0.536341 0.53633 0.536318 0.536307 0.536295 0.536284 0.536261 0.536249 0.536238 0.536226 0.536215 0.536203 0.536192 0.536169 0.536158 0.536146 0.536135 0.536123 0.536112 0.5361 0.536077 0.536066 0.536055 0.536043 0.536032 0.53602 0.536009 0.535986 0.535974 0.535963 0.535951 0.53594 0.535929 0.535917 0.535894 0.535883 0.535871 0.53586 0.535848 0.535837 0.535825 0.535802 0.535791 0.53578 0.535768 0.535757 0.535745 0.535734 0.535711 0.535699 0.535688 0.535676 0.535665 0.535654 0.535642 0.535631 0.535608 0.535596 0.535585 0.535573 0.535562 0.53555 0.535539 0.535516 0.535505 0.535493 0.535482 0.53547 0.535459 0.535447 0.535424 0.535413 0.535401 0.53539 0.535379 0.535367 0.535356 0.535333 0.535321 0.53531 0.535298 0.535287 0.535275 0.535264 0.535241 0.53523 0.535218 0.535207 0.535195 0.535184 0.535172 0.535149 0.535138 0.535126 0.535115 0.535103 0.535092 0.535081 0.535058 0.535046 0.535035 0.535023 0.535012 0.535 0.534989 0.534966 0.534955 0.534943 0.534932 0.53492 0.534909 0.534897 0.534886 0.534863 0.534851 0.53484 0.534829 0.534817 0.534806 0.534794 0.534771 0.53476 0.534748 0.534737 0.534725 0.534714 0.534703 0.53468 0.534668 0.534657 0.534645 0.534634 0.534622 0.534611 0.534588 0.534576 0.534565 0.534553 0.534542 0.534531 0.534519 0.534496 0.534485 0.534473 0.534462 0.53445 0.534439 0.534427 0.534404 0.534393 0.534382 0.53437 0.534359 0.534347 0.534336 0.534313 0.534301 0.53429 0.534278 0.534267 0.534255 0.534244 0.534221 0.53421 0.534198 0.534187 0.534175 0.534164 0.534152 0.534129 0.534118 0.534107 0.534095 0.534084 0.534072 0.534061 0.534049 0.534026 0.534015 0.534003 0.533992 0.533981 0.533969 0.533958 0.533935 0.533923 0.533912 0.5339 0.533889 0.533877 0.533866 0.533843 0.533831 0.53382 0.533809 0.533797 0.533786 0.533774 0.533751 0.53374 0.533728 0.533717 0.533705 0.533694 0.533682 0.533659 0.533648 0.533637 0.533625 0.533614 0.533602 0.533591 0.533568 0.533556 0.533545 0.533533 0.533522 0.533511 0.533499 0.533476 0.533465 0.533453 0.533442 0.53343 0.533419 0.533407 0.533384 0.533373 0.533362 0.53335 0.533339 0.533327 0.533316 0.533304 0.533281 0.53327 0.533258 0.533247 0.533235 0.533224 0.533213 0.53319 0.533178 0.533167 0.533155 0.533144 0.533132 0.533121 0.533109 0.533098 0.533086 0.533075 0.533063 0.533052 0.533029 0.533018 0.533006 0.532995 0.532983 0.532972 0.53296 0.532949 0.532937 0.532926 0.532915 0.532903 0.532892 0.53288 0.532869 0.532857 0.532846 0.532834 0.532811 0.5328 0.532788 0.532777 0.532765 0.532754 0.532743 0.532731 0.53272 0.532708 0.532697 0.532685 0.532674 0.532662 0.532651 0.532639 0.532628 0.532616 0.532594 0.532582 0.532571 0.532559 0.532548 0.532536 0.532525 0.532513 0.532502 0.53249 0.532479 0.532467 0.532456 0.532445 0.532433 0.532422 0.53241 0.532399 0.532376 0.532364 0.532353 0.532341 0.53233 0.532318 0.532307 0.532295 0.532284 0.532273 0.532261 0.53225 0.532238 0.532227 0.532215 0.532204 0.532192 0.532181 0.532169 0.532146 0.532135 0.532124 0.532112 0.532101 0.532089 0.532078 0.532066 0.532055 0.532043 0.532032 0.53202 0.532009 0.531997 0.531986 0.531974 0.531963 0.531952 0.531929 0.531917 0.531906 0.531894 0.531883 0.531871 0.53186 0.531848 0.531837 0.531825 0.531814 0.531802 0.531791 0.53178 0.531768 0.531757 0.531745 0.531734 0.531711 0.531699 0.531688 0.531676 0.531665 0.531653 0.531642 0.531631 0.531619 0.531608 0.531596 0.531585 0.531573 0.531562 0.53155 0.531539 0.531527 0.531516 0.531493 0.531481 0.53147 0.531459 0.531447 0.531436 0.531424 0.531413 0.531401 0.53139 0.531378 0.531367 0.531355 0.531344 0.531332 0.531321 0.53131 0.531298 0.531275 0.531264 0.531252 0.531241 0.531229 0.531218 0.531206 0.531195 0.531183 0.531172 0.53116 0.531149 0.531137 0.531126 0.531115 0.531103 0.531092 0.53108 0.531057 0.531046 0.531034 0.531023 0.531011 0.531 0.530988 0.530977 0.530966 0.530954 0.530943 0.530931 0.53092 0.530908 0.530897 0.530885 0.530874 0.530862 0.530839 0.530828 0.530816 0.530805 0.530794 0.530782 0.530771 0.530759 0.530748 0.530736 0.530725 0.530713 0.530702 0.53069 0.530679 0.530667 0.530656 0.530644 0.530621 0.53061 0.530599 0.530587 0.530576 0.530564 0.530553 0.530541 0.53053 0.530518 0.530507 0.530495 0.530484 0.530472 0.530461 0.53045 0.530438 0.530427 0.530404 0.530392 0.530381 0.530369 0.530358 0.530346 0.530335 0.530323 0.530312 0.5303 0.530289 0.530277 0.530266 0.530255 0.530243 0.530232 0.53022 0.530209 0.530186 0.530174 0.530163 0.530151 0.53014 0.530128 0.530117 0.530106 0.530094 0.530083 0.530071 0.53006 0.530048 0.530037 0.530025 0.530014 0.530002 0.529991 0.529968 0.529956 0.529945 0.529933 0.529922 0.529911 0.529899 0.529888 0.529876 0.529865 0.529853 0.529757 0.529746 0.529734 0.529723 0.529711 0.5297 0.529688 0.529665 0.529654 0.529642 0.529631 0.529619 0.529608 0.529597 0.529585 0.529574 0.529562 0.529551 0.529539 0.529528 0.529516 0.529505 0.529493 0.529482 0.52947 0.529447 0.529436 0.529425 0.529413 0.529402 0.52939 0.529379 0.529367 0.529356 0.529344 0.529333 0.529321 0.52931 0.529298 0.529287 0.529275 0.529264 0.529253 0.52923 0.529218 0.529207 0.529195 0.529184 0.529172 0.529161 0.529149 0.529138 0.529126 0.529115 0.529103 0.529092 0.529081 0.529069 0.529058 0.529046 0.529035 0.529012 0.529 0.528989 0.528977 0.528966 0.528954 0.528943 0.528931 0.52892 0.528909 0.528897 0.528886 0.528874 0.528863 0.528851 0.52884 0.528828 0.528817 0.528794 0.528782 0.528771 0.528759 0.528748 0.528737 0.528725 0.528714 0.528702 0.528691 0.528679 0.528668 0.528656 0.528645 0.528633 0.528622 0.52861 0.528599 0.528576 0.528564 0.528553 0.528541 0.52853 0.528519 0.528507 0.528496 0.528484 0.528473 0.528461 0.52845 0.528438 0.528427 0.528415 0.528404 0.528392 0.528381 0.528358 0.528347 0.528335 0.528324 0.528312 0.528301 0.528289 0.528278 0.528266 0.528255 0.528243 0.528232 0.52822 0.528209 0.528197 0.528186 0.528175 0.528163 0.52814 0.528129 0.528117 0.528106 0.528094 0.528083 0.528071 0.52806 0.528048 0.528037 0.528025 0.528014 0.528002 0.527991 0.52798 0.527968 0.527957 0.527945 0.527922 0.527911 0.527899 0.527888 0.527876 0.527865 0.527853 0.527842 0.52783 0.527819 0.527807 0.527796 0.527784 0.527773 0.527762 0.52775 0.527739 0.527727 0.527704 0.527693 0.527681 0.52767 0.527658 0.527647 0.527635 0.527624 0.527612 0.527601 0.527589 0.527578 0.527567 0.527555 0.527544 0.527532 0.527521 0.527509 0.527486 0.527475 0.527463 0.527452 0.52744 0.527429 0.527417 0.527406 0.527394 0.527383 0.527372 0.52736 0.527349 0.527337 0.527326 0.527314 0.527303 0.527291 0.527268 0.527257 0.527245 0.527234 0.527222 0.527211 0.527199 0.527188 0.527176 0.527165 0.527154 0.527142 0.527131 0.527119 0.527108 0.527096 0.527085 0.527073 0.52705 0.527039 0.527027 0.527016 0.527004 0.526993 0.526981 0.52697 0.526959 0.526947 0.526936 0.526924 0.526913 0.526901 0.52689 0.526878 0.526867 0.526855 0.526832 0.526821 0.526809 0.526798 0.526786 0.526775 0.526764 0.526752 0.526741 0.526729 0.526718 0.526706 0.526695 0.526683 0.526672 0.52666 0.526649 0.526637 0.526614 0.526603 0.526591 0.52658 0.526568 0.526557 0.526546 0.526534 0.526523 0.526511 0.5265 0.526488 0.526477 0.526465 0.526454 0.526442 0.526431 0.526419 0.526396 0.526385 0.526373 0.526362 0.52635 0.526339 0.526328 0.526316 0.526305 0.526293 0.526282 0.52627 0.526259 0.526247 0.526236 0.526224 0.526213 0.526201 0.526178 0.526167 0.526155 0.526144 0.526133 0.526121 0.52611 0.526098 0.526087 0.526075 0.526064 0.526052 0.526041 0.526029 0.526018 0.526006 0.525995 0.525983 0.52596 0.525949 0.525937 0.525926 0.525915 0.525903 0.525892 0.52588 0.525869 0.525857 0.525846 0.525834 0.525823 0.525811 0.5258 0.525788 0.525777 0.525765 0.525742 0.525731 0.52572 0.525708 0.525697 0.525685 0.525674 0.525662 0.525651 0.525639 0.525628 0.525616 0.525605 0.525593 0.525582 0.52557 0.525559 0.525547 0.525524 0.525513 0.525501 0.52549 0.525479 0.525467 0.525456 0.525444 0.525433 0.525421 0.52541 0.525398 0.525387 0.525375 0.525364 0.525352 0.525341 0.525329 0.525306 0.525295 0.52