New Line.l(r:p9udt372lv-p9ulv1022) Units=km Length=0.061287 bus1=p9udt372lv.1.2 bus2=p9ulv1022.1.2 switch=n enabled=y phases=2 Linecode=1P_OH_AL_4/0_Zuzara_2

New Line.l(r:p9udt372lv-p9ulv1071) Units=km Length=0.0440896 bus1=p9udt372lv.1.2 bus2=p9ulv1071.1.2 switch=n enabled=y phases=2 Linecode=1P_OH_AL_4/0_Zuzara_2

New Line.l(r:p9udt372lv-p9ulv1147) Units=km Length=0.052553 bus1=p9udt372lv.1.2 bus2=p9ulv1147.1.2 switch=n enabled=y phases=2 Linecode=1P_OH_AL_4/0_Zuzara_2

New Line.l(r:p9udt372lv-p9ulv1315) Units=km Length=0.0583979 bus1=p9udt372lv.1.2 bus2=p9ulv1315.1.2 switch=n enabled=y phases=2 Linecode=1P_OH_AL_4/0_Zuzara_2

New Line.l(r:p9udm1772-p9ulv1132) Units=km Length=0.0140851 bus1=p9udm1772.1.2 bus2=p9ulv1132.1.2 switch=n enabled=y phases=2 Linecode=1P_UG_AL_1/0_Brenau_2

New Line.l(r:p9udm1772-p9udt433lv) Units=km Length=0.00956339 bus1=p9udt433lv.1.2 bus2=p9udm1772.1.2 switch=n enabled=y phases=2 Linecode=1P_UG_AL_1/0_Brenau_2

New Line.l(r:p9udm1773-p9ulv1695) Units=km Length=0.0141167 bus1=p9udm1773.1.2 bus2=p9ulv1695.1.2 switch=n enabled=y phases=2 Linecode=1P_UG_AL_2/0_Converse_2

New Line.l(r:p9udm1773-p9udt433lv) Units=km Length=0.00955344 bus1=p9udt433lv.1.2 bus2=p9udm1773.1.2 switch=n enabled=y phases=2 Linecode=1P_UG_AL_2/0_Converse_2

New Line.l(r:p9udt479lv-p9ulv1256) Units=km Length=0.0447304 bus1=p9udt479lv.1.2 bus2=p9ulv1256.1.2 switch=n enabled=y phases=2 Linecode=1P_OH_AL_4/0_Zuzara_2

New Line.l(r:p9udm2021-p9ulv1294) Units=km Length=0.0207423 bus1=p9udm2021.1.2 bus2=p9ulv1294.1.2 switch=n enabled=y phases=2 Linecode=1P_UG_AL_1/0_Brenau_2

New Line.l(r:p9udm2021-p9udt495lv) Units=km Length=0.0199118 bus1=p9udt495lv.1.2 bus2=p9udm2021.1.2 switch=n enabled=y phases=2 Linecode=1P_UG_AL_1/0_Brenau_2

New Line.l(r:p9udm2022-p9ulv1434) Units=km Length=0.016023 bus1=p9udm2022.1.2 bus2=p9ulv1434.1.2 switch=n enabled=y phases=2 Linecode=1P_UG_AL_1/0_Brenau_2

New Line.l(r:p9udm2022-p9udt495lv) Units=km Length=0.0199118 bus1=p9udt495lv.1.2 bus2=p9udm2022.1.2 switch=n enabled=y phases=2 Linecode=1P_UG_AL_1/0_Brenau_2

New Line.l(r:p9udm2024-p9ulv1486) Units=km Length=0.00344688 bus1=p9udm2024.1.2 bus2=p9ulv1486.1.2 switch=n enabled=y phases=2 Linecode=1P_UG_AL_1/0_Brenau_2

New Line.l(r:p9udm2024-p9ulv1689) Units=km Length=0.0356614 bus1=p9udm2024.1.2 bus2=p9ulv1689.1.2 switch=n enabled=y phases=2 Linecode=1P_UG_AL_2/0_Converse_2

New Line.l(r:p9udm2023-p9ulv1295) Units=km Length=0.02082 bus1=p9udm2023.1.2 bus2=p9ulv1295.1.2 switch=n enabled=y phases=2 Linecode=1P_UG_AL_1/0_Brenau_2

New Line.l(r:p9udm2023-p9udm2024) Units=km Length=0.00995085 bus1=p9udm2024.1.2 bus2=p9udm2023.1.2 switch=n enabled=y phases=2 Linecode=1P_UG_AL_1/0_Brenau_2

New Line.l(r:p9udm2024-p9udt496lv) Units=km Length=0.0199118 bus1=p9udt496lv.1.2 bus2=p9udm2024.1.2 switch=n enabled=y phases=2 Linecode=1P_UG_AL_4/0_Sweetbriar_2

New Line.l(r:p9udm2027-p9ulv121254) Units=km Length=0.0487459 bus1=p9udm2027.1.2 bus2=p9ulv121254.1.2 switch=n enabled=y phases=2 Linecode=1P_UG_AL_1/0_Brenau_2

New Line.l(r:p9udm2026-p9ulv1792) Units=km Length=0.0170015 bus1=p9udm2026.1.2 bus2=p9ulv1792.1.2 switch=n enabled=y phases=2 Linecode=1P_UG_AL_1/0_Brenau_2

New Line.l(r:p9udm2026-p9udm2027) Units=km Length=0.0199118 bus1=p9udm2027.1.2 bus2=p9udm2026.1.2 switch=n enabled=y phases=2 Linecode=1P_UG_AL_1/0_Brenau_2

New Line.l(r:p9udm2027-p9udt496lv) Units=km Length=0.019912 bus1=p9udt496lv.1.2 bus2=p9udm2027.1.2 switch=n enabled=y phases=2 Linecode=1P_UG_AL_1/0_Brenau_2

New Line.l(r:p9udt527lv-p9ulv1454) Units=km Length=0.0636355 bus1=p9udt527lv.1.2 bus2=p9ulv1454.1.2 switch=n enabled=y phases=2 Linecode=1P_UG_AL_1/0_Brenau_2

New Line.l(r:p9udt527lv-p9ulv1475) Units=km Length=0.0254027 bus1=p9udt527lv.1.2 bus2=p9ulv1475.1.2 switch=n enabled=y phases=2 Linecode=1P_UG_AL_1/0_Brenau_2

New Line.l(r:p9udt527lv-p9ulv1565) Units=km Length=0.0324871 bus1=p9udt527lv.1.2 bus2=p9ulv1565.1.2 switch=n enabled=y phases=2 Linecode=1P_UG_AL_1/0_Brenau_2

New Line.l(r:p9udt527lv-p9ulv1836) Units=km Length=0.0102985 bus1=p9udt527lv.1.2 bus2=p9ulv1836.1.2 switch=n enabled=y phases=2 Linecode=1P_UG_AL_1/0_Brenau_2

New Line.l(r:p9udm2150-p9ulv1460) Units=km Length=0.0342584 bus1=p9udm2150.1.2 bus2=p9ulv1460.1.2 switch=n enabled=y phases=2 Linecode=1P_UG_AL_1/0_Brenau_2

New Line.l(r:p9udm2150-p9udt528lv) Units=km Length=0.0286802 bus1=p9udt528lv.1.2 bus2=p9udm2150.1.2 switch=n enabled=y phases=2 Linecode=1P_UG_AL_1/0_Brenau_2

New Line.l(r:p9udm2151-p9ulv1539) Units=km Length=0.0273 bus1=p9udm2151.1.2 bus2=p9ulv1539.1.2 switch=n enabled=y phases=2 Linecode=1P_UG_AL_1/0_Brenau_2

New Line.l(r:p9udm2151-p9udt528lv) Units=km Length=0.038254500000000004 bus1=p9udt528lv.1.2 bus2=p9udm2151.1.2 switch=n enabled=y phases=2 Linecode=1P_UG_AL_1/0_Brenau_2

New Line.l(r:p9udt1719lv-p9ulv5879) Units=km Length=0.0127748 bus1=p9udt1719lv.1.2 bus2=p9ulv5879.1.2 switch=n enabled=y phases=2 Linecode=1P_UG_AL_1/0_Brenau_2

New Line.l(r:p9udm7184-p9ulv5881) Units=km Length=0.0133426 bus1=p9udm7184.1.2 bus2=p9ulv5881.1.2 switch=n enabled=y phases=2 Linecode=1P_UG_AL_1/0_Brenau_2

New Line.l(r:p9udm7184-p9ulv47964) Units=km Length=0.0140428 bus1=p9udm7184.1.2 bus2=p9ulv47964.1.2 switch=n enabled=y phases=2 Linecode=1P_UG_AL_1/0_Brenau_2

New Line.l(r:p9udm7184-p9udt1719lv) Units=km Length=0.02869 bus1=p9udt1719lv.1.2 bus2=p9udm7184.1.2 switch=n enabled=y phases=2 Linecode=1P_UG_AL_1/0_Brenau_2

New Line.l(r:p9udm7187-p9ulv47992) Units=km Length=0.019403 bus1=p9udm7187.1.2 bus2=p9ulv47992.1.2 switch=n enabled=y phases=2 Linecode=1P_UG_AL_1/0_Brenau_2

New Line.l(r:p9udm7185-p9ulv5955) Units=km Length=0.0136618 bus1=p9udm7185.1.2 bus2=p9ulv5955.1.2 switch=n enabled=y phases=2 Linecode=1P_UG_AL_1/0_Brenau_2

New Line.l(r:p9udm7185-p9udm7187) Units=km Length=0.00957001 bus1=p9udm7187.1.2 bus2=p9udm7185.1.2 switch=n enabled=y phases=2 Linecode=1P_UG_AL_1/0_Brenau_2

New Line.l(r:p9udm7187-p9udt1719lv) Units=km Length=0.019130000000000005 bus1=p9udt1719lv.1.2 bus2=p9udm7187.1.2 switch=n enabled=y phases=2 Linecode=1P_UG_AL_1/0_Brenau_2

New Line.l(r:p9udt1722lv-p9ulv5883) Units=km Length=0.0219297 bus1=p9udt1722lv.1.2 bus2=p9ulv5883.1.2 switch=n enabled=y phases=2 Linecode=1P_OH_AL_2/0_Rucina_2

New Line.l(r:p9udm7214-p9ulv5885) Units=km Length=0.023236100000000003 bus1=p9udm7214.1.2 bus2=p9ulv5885.1.2 switch=n enabled=y phases=2 Linecode=1P_UG_AL_1/0_Brenau_2

New Line.l(r:p9udm7214-p9udt1723lv) Units=km Length=0.0292501 bus1=p9udt1723lv.1.2 bus2=p9udm7214.1.2 switch=n enabled=y phases=2 Linecode=1P_UG_AL_1/0_Brenau_2

New Line.l(r:p9udm7218-p9ulv47994) Units=km Length=0.0207636 bus1=p9udm7218.1.2 bus2=p9ulv47994.1.2 switch=n enabled=y phases=2 Linecode=1P_UG_AL_1/0_Brenau_2

New Line.l(r:p9udm7215-p9ulv47938) Units=km Length=0.0389483 bus1=p9udm7215.1.2 bus2=p9ulv47938.1.2 switch=n enabled=y phases=2 Linecode=1P_UG_AL_1/0_Brenau_2

New Line.l(r:p9udm7215-p9ulv47980) Units=km Length=0.0358203 bus1=p9udm7215.1.2 bus2=p9ulv47980.1.2 switch=n enabled=y phases=2 Linecode=1P_UG_AL_1/0_Brenau_2

New Line.l(r:p9udm7215-p9ulv47991) Units=km Length=0.0146229 bus1=p9udm7215.1.2 bus2=p9ulv47991.1.2 switch=n enabled=y phases=2 Linecode=1P_UG_AL_1/0_Brenau_2

New Line.l(r:p9udm7215-p9udm7218) Units=km Length=0.00974005 bus1=p9udm7218.1.2 bus2=p9udm7215.1.2 switch=n enabled=y phases=2 Linecode=1P_UG_AL_1/0_Brenau_2

New Line.l(r:p9udm7218-p9udt1723lv) Units=km Length=0.00975005 bus1=p9udt1723lv.1.2 bus2=p9udm7218.1.2 switch=n enabled=y phases=2 Linecode=1P_UG_AL_1/0_Brenau_2

New Line.l(r:p9udm7227-p9ulv5890) Units=km Length=0.0128018 bus1=p9udm7227.1.2 bus2=p9ulv5890.1.2 switch=n enabled=y phases=2 Linecode=1P_UG_AL_1/0_Brenau_2

New Line.l(r:p9udm7228-p9ulv5928) Units=km Length=0.013229700000000002 bus1=p9udm7228.1.2 bus2=p9ulv5928.1.2 switch=n enabled=y phases=2 Linecode=1P_UG_AL_1/0_Brenau_2

New Line.l(r:p9udm7230-p9ulv47999) Units=km Length=0.013926 bus1=p9udm7230.1.2 bus2=p9ulv47999.1.2 switch=n enabled=y phases=2 Linecode=1P_UG_AL_1/0_Brenau_2

New Line.l(r:p9udm7228-p9udm7230) Units=km Length=0.0387012 bus1=p9udm7228.1.2 bus2=p9udm7230.1.2 switch=n enabled=y phases=2 Linecode=1P_UG_AL_1/0_Brenau_2

New Line.l(r:p9udm7227-p9udm7228) Units=km Length=0.00957088 bus1=p9udm7227.1.2 bus2=p9udm7228.1.2 switch=n enabled=y phases=2 Linecode=1P_UG_AL_1/0_Brenau_2

New Line.l(r:p9udm7227-p9udt1726lv) Units=km Length=0.00958075 bus1=p9udt1726lv.1.2 bus2=p9udm7227.1.2 switch=n enabled=y phases=2 Linecode=1P_UG_AL_2/0_Converse_2

New Line.l(r:p9udm7229-p9ulv5931) Units=km Length=0.0129994 bus1=p9udm7229.1.2 bus2=p9ulv5931.1.2 switch=n enabled=y phases=2 Linecode=1P_UG_AL_1/0_Brenau_2

New Line.l(r:p9udm7229-p9udt1726lv) Units=km Length=0.0383033 bus1=p9udt1726lv.1.2 bus2=p9udm7229.1.2 switch=n enabled=y phases=2 Linecode=1P_UG_AL_1/0_Brenau_2

New Line.l(r:p9udm7235-p9ulv47922) Units=km Length=0.0070112 bus1=p9udm7235.1.2 bus2=p9ulv47922.1.2 switch=n enabled=y phases=2 Linecode=1P_UG_AL_1/0_Brenau_2

New Line.l(r:p9udm7236-p9ulv47932) Units=km Length=0.0168032 bus1=p9udm7236.1.2 bus2=p9ulv47932.1.2 switch=n enabled=y phases=2 Linecode=1P_UG_AL_1/0_Brenau_2

New Line.l(r:p9udm7235-p9udm7236) Units=km Length=0.0651924 bus1=p9udm7235.1.2 bus2=p9udm7236.1.2 switch=n enabled=y phases=2 Linecode=1P_UG_AL_1/0_Brenau_2

New Line.l(r:p9udm7235-p9udt1728lv) Units=km Length=0.0175703 bus1=p9udt1728lv.1.2 bus2=p9udm7235.1.2 switch=n enabled=y phases=2 Linecode=1P_UG_AL_1/0_Brenau_2

New Line.l(r:p9udm7237-p9ulv47934) Units=km Length=0.0163031 bus1=p9udm7237.1.2 bus2=p9ulv47934.1.2 switch=n enabled=y phases=2 Linecode=1P_UG_AL_1/0_Brenau_2

New Line.l(r:p9udm7234-p9ulv5992) Units=km Length=0.00818086 bus1=p9udm7234.1.2 bus2=p9ulv5992.1.2 switch=n enabled=y phases=2 Linecode=1P_UG_AL_1/0_Brenau_2

New Line.l(r:p9udm7233-p9ulv5894) Units=km Length=0.0090553 bus1=p9udm7233.1.2 bus2=p9ulv5894.1.2 switch=n enabled=y phases=2 Linecode=1P_UG_AL_1/0_Brenau_2

New Line.l(r:p9udm7233-p9udm7234) Units=km Length=0.053351 bus1=p9udm7234.1.2 bus2=p9udm7233.1.2 switch=n enabled=y phases=2 Linecode=1P_UG_AL_1/0_Brenau_2

New Line.l(r:p9udm7234-p9udm7237) Units=km Length=0.0464795 bus1=p9udm7237.1.2 bus2=p9udm7234.1.2 switch=n enabled=y phases=2 Linecode=1P_UG_AL_1/0_Brenau_2

New Line.l(r:p9udm7237-p9udt1728lv) Units=km Length=0.0263604 bus1=p9udt1728lv.1.2 bus2=p9udm7237.1.2 switch=n enabled=y phases=2 Linecode=1P_UG_AL_1/0_Brenau_2

New Line.l(r:p9udt1732lv-p9ulv5902) Units=km Length=0.001 bus1=p9udt1732lv.1.2 bus2=p9ulv5902.1.2 switch=n enabled=y phases=2 Linecode=1P_UG_AL_1/0_Brenau_2

New Line.l(r:p9udt1741lv-p9ulv5966) Units=km Length=0.054464900000000004 bus1=p9udt1741lv.1.2 bus2=p9ulv5966.1.2 switch=n enabled=y phases=2 Linecode=1P_OH_AL_4/0_Zuzara_2

New Line.l(r:p9udm7275-p9ulv5989) Units=km Length=0.0129501 bus1=p9udm7275.1.2 bus2=p9ulv5989.1.2 switch=n enabled=y phases=2 Linecode=1P_UG_AL_1/0_Brenau_2

New Line.l(r:p9udm7275-p9udt1746lv) Units=km Length=0.019130000000000005 bus1=p9udt1746lv.1.2 bus2=p9udm7275.1.2 switch=n enabled=y phases=2 Linecode=1P_UG_AL_1/0_Brenau_2

New Line.l(r:p9udm7276-p9ulv47971) Units=km Length=0.0107654 bus1=p9udm7276.1.2 bus2=p9ulv47971.1.2 switch=n enabled=y phases=2 Linecode=1P_UG_AL_1/0_Brenau_2

New Line.l(r:p9udm7276-p9udt1746lv) Units=km Length=0.0966411 bus1=p9udt1746lv.1.2 bus2=p9udm7276.1.2 switch=n enabled=y phases=2 Linecode=1P_UG_AL_1/0_Brenau_2

New Line.l(r:p9udt7052lv-p9ulv25911) Units=km Length=0.001 bus1=p9udt7052lv.1.2 bus2=p9ulv25911.1.2 switch=n enabled=y phases=2 Linecode=1P_UG_AL_1/0_Brenau_2

New Line.l(r:p9udt7090lv-p9ulv26024) Units=km Length=0.0864152 bus1=p9udt7090lv.1.2 bus2=p9ulv26024.1.2 switch=n enabled=y phases=2 Linecode=1P_OH_AL_4/0_Zuzara_2

New Line.l(r:p9udm29036-p9ulv27634) Units=km Length=0.00915994 bus1=p9udm29036.1.2 bus2=p9ulv27634.1.2 switch=n enabled=y phases=2 Linecode=1P_OH_AL_2/0_Rucina_2

New Line.l(r:p9udm29036-p9udt7090lv) Units=km Length=0.0198103 bus1=p9udt7090lv.1.2 bus2=p9udm29036.1.2 switch=n enabled=y phases=2 Linecode=1P_OH_AL_2/0_Rucina_2

New Line.l(r:p9udt7095lv-p9ulv26041) Units=km Length=0.001 bus1=p9udt7095lv.1.2 bus2=p9ulv26041.1.2 switch=n enabled=y phases=2 Linecode=1P_OH_AL_4_Periwinkle_2

New Line.l(r:p9udt7096lv-p9ulv26047) Units=km Length=0.001 bus1=p9udt7096lv.1.2 bus2=p9ulv26047.1.2 switch=n enabled=y phases=2 Linecode=1P_UG_AL_1/0_Brenau_2

New Line.l(r:p9udt7534lv-p9ulv27556) Units=km Length=0.0289538 bus1=p9udt7534lv.1.2 bus2=p9ulv27556.1.2 switch=n enabled=y phases=2 Linecode=1P_UG_AL_1/0_Brenau_2

New Line.l(r:p9udm30568-p9ulv27569) Units=km Length=0.0285832 bus1=p9udm30568.1.2 bus2=p9ulv27569.1.2 switch=n enabled=y phases=2 Linecode=1P_UG_AL_1/0_Brenau_2

New Line.l(r:p9udm30568-p9udt7534lv) Units=km Length=0.0188006 bus1=p9udt7534lv.1.2 bus2=p9udm30568.1.2 switch=n enabled=y phases=2 Linecode=1P_UG_AL_1/0_Brenau_2

New Line.l(r:p9udm30569-p9ulv112358) Units=km Length=0.0199251 bus1=p9udm30569.1.2 bus2=p9ulv112358.1.2 switch=n enabled=y phases=2 Linecode=1P_UG_AL_1/0_Brenau_2

New Line.l(r:p9udm30569-p9udt7534lv) Units=km Length=0.00940026 bus1=p9udt7534lv.1.2 bus2=p9udm30569.1.2 switch=n enabled=y phases=2 Linecode=1P_UG_AL_1/0_Brenau_2

New Line.l(r:p9udt7535lv-p9ulv27557) Units=km Length=0.0446468 bus1=p9udt7535lv.1.2 bus2=p9ulv27557.1.2 switch=n enabled=y phases=2 Linecode=1P_UG_AL_1/0_Brenau_2

New Line.l(r:p9udt7535lv-p9ulv27594) Units=km Length=0.0281112 bus1=p9udt7535lv.1.2 bus2=p9ulv27594.1.2 switch=n enabled=y phases=2 Linecode=1P_UG_AL_1/0_Brenau_2

New Line.l(r:p9udt7535lv-p9ulv27616) Units=km Length=0.0629822 bus1=p9udt7535lv.1.2 bus2=p9ulv27616.1.2 switch=n enabled=y phases=2 Linecode=1P_UG_AL_1/0_Brenau_2

New Line.l(r:p9udm30573-p9ulv27558) Units=km Length=0.019184100000000003 bus1=p9udm30573.1.2 bus2=p9ulv27558.1.2 switch=n enabled=y phases=2 Linecode=1P_UG_AL_1/0_Brenau_2

New Line.l(r:p9udm30575-p9ulv27576) Units=km Length=0.017285 bus1=p9udm30575.1.2 bus2=p9ulv27576.1.2 switch=n enabled=y phases=2 Linecode=1P_UG_AL_1/0_Brenau_2

New Line.l(r:p9udm30573-p9udm30575) Units=km Length=0.0197878 bus1=p9udm30573.1.2 bus2=p9udm30575.1.2 switch=n enabled=y phases=2 Linecode=1P_UG_AL_1/0_Brenau_2

New Line.l(r:p9udm30573-p9udt7536lv) Units=km Length=0.008947340000000002 bus1=p9udt7536lv.1.2 bus2=p9udm30573.1.2 switch=n enabled=y phases=2 Linecode=1P_UG_AL_1/0_Brenau_2

New Line.l(r:p9udm30574-p9ulv27560) Units=km Length=0.018361900000000004 bus1=p9udm30574.1.2 bus2=p9ulv27560.1.2 switch=n enabled=y phases=2 Linecode=1P_UG_AL_1/0_Brenau_2

New Line.l(r:p9udm30576-p9ulv112378) Units=km Length=0.0160609 bus1=p9udm30576.1.2 bus2=p9ulv112378.1.2 switch=n enabled=y phases=2 Linecode=1P_UG_AL_1/0_Brenau_2

New Line.l(r:p9udm30574-p9udm30576) Units=km Length=0.00894072 bus1=p9udm30574.1.2 bus2=p9udm30576.1.2 switch=n enabled=y phases=2 Linecode=1P_UG_AL_1/0_Brenau_2

New Line.l(r:p9udm30574-p9udt7536lv) Units=km Length=0.00894072 bus1=p9udt7536lv.1.2 bus2=p9udm30574.1.2 switch=n enabled=y phases=2 Linecode=1P_UG_AL_1/0_Brenau_2

New Line.l(r:p9udm30582-p9ulv27562) Units=km Length=0.0242403 bus1=p9udm30582.1.2 bus2=p9ulv27562.1.2 switch=n enabled=y phases=2 Linecode=1P_UG_AL_1/0_Brenau_2

New Line.l(r:p9udm30582-p9ulv48011) Units=km Length=0.010939400000000002 bus1=p9udm30582.1.2 bus2=p9ulv48011.1.2 switch=n enabled=y phases=2 Linecode=1P_UG_AL_1/0_Brenau_2

New Line.l(r:p9udm30582-p9udt7539lv) Units=km Length=0.00945233 bus1=p9udt7539lv.1.2 bus2=p9udm30582.1.2 switch=n enabled=y phases=2 Linecode=1P_UG_AL_1/0_Brenau_2

New Line.l(r:p9udm30583-p9ulv47907) Units=km Length=0.023581 bus1=p9udm30583.1.2 bus2=p9ulv47907.1.2 switch=n enabled=y phases=2 Linecode=1P_UG_AL_1/0_Brenau_2

New Line.l(r:p9udm30583-p9udt7539lv) Units=km Length=0.028357 bus1=p9udt7539lv.1.2 bus2=p9udm30583.1.2 switch=n enabled=y phases=2 Linecode=1P_UG_AL_1/0_Brenau_2

New Line.l(r:p9udt7543lv-p9ulv27566) Units=km Length=0.0741741 bus1=p9udt7543lv.1.2 bus2=p9ulv27566.1.2 switch=n enabled=y phases=2 Linecode=1P_UG_AL_1/0_Brenau_2

New Line.l(r:p9udt7543lv-p9ulv27593) Units=km Length=0.060698 bus1=p9udt7543lv.1.2 bus2=p9ulv27593.1.2 switch=n enabled=y phases=2 Linecode=1P_UG_AL_1/0_Brenau_2

New Line.l(r:p9udt7543lv-p9ulv27602) Units=km Length=0.0195505 bus1=p9udt7543lv.1.2 bus2=p9ulv27602.1.2 switch=n enabled=y phases=2 Linecode=1P_UG_AL_1/0_Brenau_2

New Line.l(r:p9udm30597-p9ulv27591) Units=km Length=0.0211171 bus1=p9udm30597.1.2 bus2=p9ulv27591.1.2 switch=n enabled=y phases=2 Linecode=1P_UG_AL_1/0_Brenau_2

New Line.l(r:p9udm30597-p9udt7543lv) Units=km Length=0.00945005 bus1=p9udt7543lv.1.2 bus2=p9udm30597.1.2 switch=n enabled=y phases=2 Linecode=1P_UG_AL_1/0_Brenau_2

New Line.l(r:p9udt7544lv-p9ulv27567) Units=km Length=0.08058190000000001 bus1=p9udt7544lv.1.2 bus2=p9ulv27567.1.2 switch=n enabled=y phases=2 Linecode=1P_UG_AL_1/0_Brenau_2

New Line.l(r:p9udm30602-p9ulv27589) Units=km Length=0.00945542 bus1=p9udm30602.1.2 bus2=p9ulv27589.1.2 switch=n enabled=y phases=2 Linecode=1P_UG_AL_1/0_Brenau_2

New Line.l(r:p9udm30601-p9ulv27568) Units=km Length=0.0107864 bus1=p9udm30601.1.2 bus2=p9ulv27568.1.2 switch=n enabled=y phases=2 Linecode=1P_UG_AL_1/0_Brenau_2

New Line.l(r:p9udm30601-p9udm30602) Units=km Length=0.00988013 bus1=p9udm30602.1.2 bus2=p9udm30601.1.2 switch=n enabled=y phases=2 Linecode=1P_UG_AL_1/0_Brenau_2

New Line.l(r:p9udm30602-p9udt7545lv) Units=km Length=0.00989008 bus1=p9udt7545lv.1.2 bus2=p9udm30602.1.2 switch=n enabled=y phases=2 Linecode=1P_UG_AL_1/0_Brenau_2

New Line.l(r:p9udm30603-p9ulv27610) Units=km Length=0.00890757 bus1=p9udm30603.1.2 bus2=p9ulv27610.1.2 switch=n enabled=y phases=2 Linecode=1P_UG_AL_1/0_Brenau_2

New Line.l(r:p9udm30603-p9udt7545lv) Units=km Length=0.0296403 bus1=p9udt7545lv.1.2 bus2=p9udm30603.1.2 switch=n enabled=y phases=2 Linecode=1P_UG_AL_1/0_Brenau_2

New Line.l(r:p9udm30606-p9ulv27573) Units=km Length=0.0578649 bus1=p9udm30606.1.2 bus2=p9ulv27573.1.2 switch=n enabled=y phases=2 Linecode=1P_UG_AL_1/0_Brenau_2

New Line.l(r:p9udm30606-p9ulv27625) Units=km Length=0.0289539 bus1=p9udm30606.1.2 bus2=p9ulv27625.1.2 switch=n enabled=y phases=2 Linecode=1P_UG_AL_1/0_Brenau_2

New Line.l(r:p9udm30606-p9udt7548lv) Units=km Length=0.00945005 bus1=p9udt7548lv.1.2 bus2=p9udm30606.1.2 switch=n enabled=y phases=2 Linecode=1P_UG_AL_1/0_Brenau_2

New Line.l(r:p9udm30608-p9ulv112715) Units=km Length=0.0234676 bus1=p9udm30608.1.2 bus2=p9ulv112715.1.2 switch=n enabled=y phases=2 Linecode=1P_UG_AL_1/0_Brenau_2

New Line.l(r:p9udm30608-p9udt7548lv) Units=km Length=0.0661904 bus1=p9udt7548lv.1.2 bus2=p9udm30608.1.2 switch=n enabled=y phases=2 Linecode=1P_UG_AL_1/0_Brenau_2

New Line.l(r:p9udt7550lv-p9ulv27575) Units=km Length=0.044206600000000006 bus1=p9udt7550lv.1.2 bus2=p9ulv27575.1.2 switch=n enabled=y phases=2 Linecode=1P_OH_AL_4/0_Zuzara_2

New Line.l(r:p9udt7553lv-p9ulv112529) Units=km Length=0.0168683 bus1=p9udt7553lv.1.2 bus2=p9ulv112529.1.2 switch=n enabled=y phases=2 Linecode=1P_UG_AL_1/0_Brenau_2

New Line.l(r:p9udm30622-p9ulv27638) Units=km Length=0.027026900000000003 bus1=p9udm30622.1.2 bus2=p9ulv27638.1.2 switch=n enabled=y phases=2 Linecode=1P_UG_AL_1/0_Brenau_2

New Line.l(r:p9udm30620-p9ulv27580) Units=km Length=0.0227281 bus1=p9udm30620.1.2 bus2=p9ulv27580.1.2 switch=n enabled=y phases=2 Linecode=1P_UG_AL_1/0_Brenau_2

New Line.l(r:p9udm30621-p9ulv27606) Units=km Length=0.0244696 bus1=p9udm30621.1.2 bus2=p9ulv27606.1.2 switch=n enabled=y phases=2 Linecode=1P_UG_AL_1/0_Brenau_2

New Line.l(r:p9udm30620-p9udm30621) Units=km Length=0.0187712 bus1=p9udm30620.1.2 bus2=p9udm30621.1.2 switch=n enabled=y phases=2 Linecode=1P_UG_AL_1/0_Brenau_2

New Line.l(r:p9udm30620-p9udm30622) Units=km Length=0.0187712 bus1=p9udm30622.1.2 bus2=p9udm30620.1.2 switch=n enabled=y phases=2 Linecode=1P_UG_AL_1/0_Brenau_2

New Line.l(r:p9udm30622-p9udt7553lv) Units=km Length=0.009390640000000002 bus1=p9udt7553lv.1.2 bus2=p9udm30622.1.2 switch=n enabled=y phases=2 Linecode=1P_UG_AL_4/0_Sweetbriar_2

New Line.l(r:p9udm30623-p9ulv112327) Units=km Length=0.014774600000000002 bus1=p9udm30623.1.2 bus2=p9ulv112327.1.2 switch=n enabled=y phases=2 Linecode=1P_UG_AL_1/0_Brenau_2

New Line.l(r:p9udm30624-p9ulv112470) Units=km Length=0.0136637 bus1=p9udm30624.1.2 bus2=p9ulv112470.1.2 switch=n enabled=y phases=2 Linecode=1P_UG_AL_1/0_Brenau_2

New Line.l(r:p9udm30623-p9udm30624) Units=km Length=0.0657143 bus1=p9udm30623.1.2 bus2=p9udm30624.1.2 switch=n enabled=y phases=2 Linecode=1P_UG_AL_1/0_Brenau_2

New Line.l(r:p9udm30623-p9udt7553lv) Units=km Length=0.00938064 bus1=p9udt7553lv.1.2 bus2=p9udm30623.1.2 switch=n enabled=y phases=2 Linecode=1P_UG_AL_1/0_Brenau_2

New Line.l(r:p9udt7554lv-p9ulv27581) Units=km Length=0.0559829 bus1=p9udt7554lv.1.2 bus2=p9ulv27581.1.2 switch=n enabled=y phases=2 Linecode=1P_UG_AL_1/0_Brenau_2

New Line.l(r:p9udt7554lv-p9ulv27588) Units=km Length=0.0236324 bus1=p9udt7554lv.1.2 bus2=p9ulv27588.1.2 switch=n enabled=y phases=2 Linecode=1P_UG_AL_1/0_Brenau_2

New Line.l(r:p9udt7554lv-p9ulv27613) Units=km Length=0.061917 bus1=p9udt7554lv.1.2 bus2=p9ulv27613.1.2 switch=n enabled=y phases=2 Linecode=1P_UG_AL_1/0_Brenau_2

New Line.l(r:p9udt7559lv-p9ulv27590) Units=km Length=0.001 bus1=p9udt7559lv.1.2 bus2=p9ulv27590.1.2 switch=n enabled=y phases=2 Linecode=1P_OH_AL_4_Periwinkle_2

New Line.l(r:p9udt7567lv-p9ulv27608) Units=km Length=0.0262186 bus1=p9udt7567lv.1.2 bus2=p9ulv27608.1.2 switch=n enabled=y phases=2 Linecode=1P_UG_AL_1/0_Brenau_2

New Line.l(r:p9udt7567lv-p9ulv27627) Units=km Length=0.042315 bus1=p9udt7567lv.1.2 bus2=p9ulv27627.1.2 switch=n enabled=y phases=2 Linecode=1P_UG_AL_1/0_Brenau_2

New Line.l(r:p9udt7567lv-p9ulv27633) Units=km Length=0.04049160000000001 bus1=p9udt7567lv.1.2 bus2=p9ulv27633.1.2 switch=n enabled=y phases=2 Linecode=1P_UG_AL_1/0_Brenau_2

New Line.l(r:p9udt7568lv-p9ulv27609) Units=km Length=0.0123994 bus1=p9udt7568lv.1.2 bus2=p9ulv27609.1.2 switch=n enabled=y phases=2 Linecode=1P_OH_AL_2/0_Rucina_2

New Line.l(r:p9udm30658-p9ulv112346) Units=km Length=0.0150035 bus1=p9udm30658.1.2 bus2=p9ulv112346.1.2 switch=n enabled=y phases=2 Linecode=1P_UG_AL_1/0_Brenau_2

New Line.l(r:p9udm30658-p9ulv112624) Units=km Length=0.0200928 bus1=p9udm30658.1.2 bus2=p9ulv112624.1.2 switch=n enabled=y phases=2 Linecode=1P_UG_AL_1/0_Brenau_2

New Line.l(r:p9udm30656-p9ulv27615) Units=km Length=0.0250412 bus1=p9udm30656.1.2 bus2=p9ulv27615.1.2 switch=n enabled=y phases=2 Linecode=1P_UG_AL_1/0_Brenau_2

New Line.l(r:p9udm30656-p9udm30658) Units=km Length=0.0284606 bus1=p9udm30658.1.2 bus2=p9udm30656.1.2 switch=n enabled=y phases=2 Linecode=1P_UG_AL_1/0_Brenau_2

New Line.l(r:p9udm30658-p9udt7569lv) Units=km Length=0.0189604 bus1=p9udt7569lv.1.2 bus2=p9udm30658.1.2 switch=n enabled=y phases=2 Linecode=1P_UG_AL_2/0_Converse_2

New Line.l(r:p9udm30659-p9ulv112572) Units=km Length=0.0160209 bus1=p9udm30659.1.2 bus2=p9ulv112572.1.2 switch=n enabled=y phases=2 Linecode=1P_UG_AL_1/0_Brenau_2

New Line.l(r:p9udm30659-p9ulv112649) Units=km Length=0.0173618 bus1=p9udm30659.1.2 bus2=p9ulv112649.1.2 switch=n enabled=y phases=2 Linecode=1P_UG_AL_1/0_Brenau_2

New Line.l(r:p9udm30657-p9ulv112292) Units=km Length=0.0154355 bus1=p9udm30657.1.2 bus2=p9ulv112292.1.2 switch=n enabled=y phases=2 Linecode=1P_UG_AL_1/0_Brenau_2

New Line.l(r:p9udm30657-p9udm30659) Units=km Length=0.0284506 bus1=p9udm30659.1.2 bus2=p9udm30657.1.2 switch=n enabled=y phases=2 Linecode=1P_UG_AL_1/0_Brenau_2

New Line.l(r:p9udm30659-p9udt7569lv) Units=km Length=0.00949026 bus1=p9udt7569lv.1.2 bus2=p9udm30659.1.2 switch=n enabled=y phases=2 Linecode=1P_UG_AL_2/0_Converse_2

New Line.l(r:p9udt7572lv-p9ulv27623) Units=km Length=0.060737000000000006 bus1=p9udt7572lv.1.2 bus2=p9ulv27623.1.2 switch=n enabled=y phases=2 Linecode=1P_UG_AL_1/0_Brenau_2

New Line.l(r:p9udt7572lv-p9ulv27637) Units=km Length=0.0337085 bus1=p9udt7572lv.1.2 bus2=p9ulv27637.1.2 switch=n enabled=y phases=2 Linecode=1P_UG_AL_1/0_Brenau_2

New Line.l(r:p9udt7573lv-p9ulv112257) Units=km Length=0.011629000000000002 bus1=p9udt7573lv.1.2 bus2=p9ulv112257.1.2 switch=n enabled=y phases=2 Linecode=1P_UG_AL_1/0_Brenau_2

New Line.l(r:p9udm30668-p9ulv112371) Units=km Length=0.0194964 bus1=p9udm30668.1.2 bus2=p9ulv112371.1.2 switch=n enabled=y phases=2 Linecode=1P_UG_AL_1/0_Brenau_2

New Line.l(r:p9udm30666-p9ulv27628) Units=km Length=0.027671 bus1=p9udm30666.1.2 bus2=p9ulv27628.1.2 switch=n enabled=y phases=2 Linecode=1P_UG_AL_1/0_Brenau_2

New Line.l(r:p9udm30666-p9udm30668) Units=km Length=0.00946005 bus1=p9udm30668.1.2 bus2=p9udm30666.1.2 switch=n enabled=y phases=2 Linecode=1P_UG_AL_1/0_Brenau_2

New Line.l(r:p9udm30668-p9udt7573lv) Units=km Length=0.00946005 bus1=p9udt7573lv.1.2 bus2=p9udm30668.1.2 switch=n enabled=y phases=2 Linecode=1P_UG_AL_1/0_Brenau_2

New Line.l(r:p9udm30669-p9ulv112565) Units=km Length=0.0107603 bus1=p9udm30669.1.2 bus2=p9ulv112565.1.2 switch=n enabled=y phases=2 Linecode=1P_UG_AL_1/0_Brenau_2

New Line.l(r:p9udm30669-p9udt7573lv) Units=km Length=0.0378202 bus1=p9udt7573lv.1.2 bus2=p9udm30669.1.2 switch=n enabled=y phases=2 Linecode=1P_UG_AL_1/0_Brenau_2

New Line.l(r:p9udt11508lv-p9ulv42971) Units=km Length=0.0141432 bus1=p9udt11508lv.1.2 bus2=p9ulv42971.1.2 switch=n enabled=y phases=2 Linecode=1P_UG_AL_1/0_Brenau_2

New Line.l(r:p9udm46735-p9ulv43116) Units=km Length=0.013972 bus1=p9udm46735.1.2 bus2=p9ulv43116.1.2 switch=n enabled=y phases=2 Linecode=1P_UG_AL_1/0_Brenau_2

New Line.l(r:p9udm46734-p9ulv42987) Units=km Length=0.0196602 bus1=p9udm46734.1.2 bus2=p9ulv42987.1.2 switch=n enabled=y phases=2 Linecode=1P_UG_AL_1/0_Brenau_2

New Line.l(r:p9udm46734-p9udm46735) Units=km Length=0.0376887 bus1=p9udm46735.1.2 bus2=p9udm46734.1.2 switch=n enabled=y phases=2 Linecode=1P_UG_AL_1/0_Brenau_2

New Line.l(r:p9udm46735-p9udt11508lv) Units=km Length=0.022957600000000005 bus1=p9udt11508lv.1.2 bus2=p9udm46735.1.2 switch=n enabled=y phases=2 Linecode=1P_UG_AL_1/0_Brenau_2

New Line.l(r:p9udm46737-p9ulv43201) Units=km Length=0.013367100000000002 bus1=p9udm46737.1.2 bus2=p9ulv43201.1.2 switch=n enabled=y phases=2 Linecode=1P_UG_AL_1/0_Brenau_2

New Line.l(r:p9udm46732-p9ulv42969) Units=km Length=0.0126144 bus1=p9udm46732.1.2 bus2=p9ulv42969.1.2 switch=n enabled=y phases=2 Linecode=1P_UG_AL_1/0_Brenau_2

New Line.l(r:p9udm46736-p9ulv43142) Units=km Length=0.021260300000000003 bus1=p9udm46736.1.2 bus2=p9ulv43142.1.2 switch=n enabled=y phases=2 Linecode=1P_UG_AL_1/0_Brenau_2

New Line.l(r:p9udm46732-p9udm46736) Units=km Length=0.047104 bus1=p9udm46732.1.2 bus2=p9udm46736.1.2 switch=n enabled=y phases=2 Linecode=1P_UG_AL_1/0_Brenau_2

New Line.l(r:p9udm46732-p9udm46737) Units=km Length=0.008414870000000001 bus1=p9udm46737.1.2 bus2=p9udm46732.1.2 switch=n enabled=y phases=2 Linecode=1P_UG_AL_1/0_Brenau_2

New Line.l(r:p9udm46737-p9udt11508lv) Units=km Length=0.00765122 bus1=p9udt11508lv.1.2 bus2=p9udm46737.1.2 switch=n enabled=y phases=2 Linecode=1P_UG_AL_1/0_Brenau_2

New Line.l(r:p9udt11511lv-p9ulv43051) Units=km Length=0.0153858 bus1=p9udt11511lv.1.2 bus2=p9ulv43051.1.2 switch=n enabled=y phases=2 Linecode=1P_UG_AL_1/0_Brenau_2

New Line.l(r:p9udt11511lv-p9ulv118954) Units=km Length=0.0104548 bus1=p9udt11511lv.1.2 bus2=p9ulv118954.1.2 switch=n enabled=y phases=2 Linecode=1P_UG_AL_1/0_Brenau_2

New Line.l(r:p9udm46744-p9ulv42976) Units=km Length=0.0220874 bus1=p9udm46744.1.2 bus2=p9ulv42976.1.2 switch=n enabled=y phases=2 Linecode=1P_UG_AL_1/0_Brenau_2

New Line.l(r:p9udm46744-p9ulv42993) Units=km Length=0.0187115 bus1=p9udm46744.1.2 bus2=p9ulv42993.1.2 switch=n enabled=y phases=2 Linecode=1P_UG_AL_1/0_Brenau_2

New Line.l(r:p9udm46744-p9ulv43017) Units=km Length=0.0180138 bus1=p9udm46744.1.2 bus2=p9ulv43017.1.2 switch=n enabled=y phases=2 Linecode=1P_UG_AL_1/0_Brenau_2

New Line.l(r:p9udm46749-p9ulv43074) Units=km Length=0.0168923 bus1=p9udm46749.1.2 bus2=p9ulv43074.1.2 switch=n enabled=y phases=2 Linecode=1P_UG_AL_1/0_Brenau_2

New Line.l(r:p9udm46744-p9udm46749) Units=km Length=0.00967828 bus1=p9udm46744.1.2 bus2=p9udm46749.1.2 switch=n enabled=y phases=2 Linecode=1P_UG_AL_1/0_Brenau_2

New Line.l(r:p9udm46744-p9udt11511lv) Units=km Length=0.0183722 bus1=p9udt11511lv.1.2 bus2=p9udm46744.1.2 switch=n enabled=y phases=2 Linecode=1P_UG_AL_1/0_Brenau_2

New Line.l(r:p9udm46752-p9ulv43175) Units=km Length=0.0145092 bus1=p9udm46752.1.2 bus2=p9ulv43175.1.2 switch=n enabled=y phases=2 Linecode=1P_UG_AL_1/0_Brenau_2

New Line.l(r:p9udm46751-p9ulv43119) Units=km Length=0.013780500000000001 bus1=p9udm46751.1.2 bus2=p9ulv43119.1.2 switch=n enabled=y phases=2 Linecode=1P_UG_AL_1/0_Brenau_2

New Line.l(r:p9udm46751-p9ulv118895) Units=km Length=0.0110453 bus1=p9udm46751.1.2 bus2=p9ulv118895.1.2 switch=n enabled=y phases=2 Linecode=1P_UG_AL_1/0_Brenau_2

New Line.l(r:p9udm46747-p9ulv43030) Units=km Length=0.0142396 bus1=p9udm46747.1.2 bus2=p9ulv43030.1.2 switch=n enabled=y phases=2 Linecode=1P_UG_AL_1/0_Brenau_2

New Line.l(r:p9udm46750-p9ulv43079) Units=km Length=0.0138261 bus1=p9udm46750.1.2 bus2=p9ulv43079.1.2 switch=n enabled=y phases=2 Linecode=1P_UG_AL_1/0_Brenau_2

New Line.l(r:p9udm46747-p9udm46750) Units=km Length=0.0091861 bus1=p9udm46747.1.2 bus2=p9udm46750.1.2 switch=n enabled=y phases=2 Linecode=1P_UG_AL_1/0_Brenau_2

New Line.l(r:p9udm46747-p9udm46751) Units=km Length=0.0091861 bus1=p9udm46751.1.2 bus2=p9udm46747.1.2 switch=n enabled=y phases=2 Linecode=1P_UG_AL_1/0_Brenau_2

New Line.l(r:p9udm46751-p9udm46752) Units=km Length=0.018371 bus1=p9udm46752.1.2 bus2=p9udm46751.1.2 switch=n enabled=y phases=2 Linecode=1P_UG_AL_1/0_Brenau_2

New Line.l(r:p9udm46752-p9udt11511lv) Units=km Length=0.00917617 bus1=p9udt11511lv.1.2 bus2=p9udm46752.1.2 switch=n enabled=y phases=2 Linecode=1P_UG_AL_2/0_Converse_2

New Line.l(r:p9udm46760-p9ulv42991) Units=km Length=0.0150917 bus1=p9udm46760.1.2 bus2=p9ulv42991.1.2 switch=n enabled=y phases=2 Linecode=1P_UG_AL_1/0_Brenau_2
