New Load.load_p9ulv1022_1 conn=wye bus1=p9ulv1022.1 kV=0.12 Vminpu=0.8 Vmaxpu=1.2 model=1 kW=3.133603663599094 kvar=0.018922139033990728 Phases=1 // yearly=com_kw_20991_pu

New Load.load_p9ulv1022_2 conn=wye bus1=p9ulv1022.2 kV=0.12 Vminpu=0.8 Vmaxpu=1.2 model=1 kW=3.133603663599094 kvar=0.018922139033990728 Phases=1 // yearly=com_kw_20991_pu

New Load.load_p9ulv1071_1 conn=wye bus1=p9ulv1071.1 kV=0.12 Vminpu=0.8 Vmaxpu=1.2 model=1 kW=1.7101501378288513 kvar=0.4527501720520811 Phases=1 // yearly=com_kw_17970_pu

New Load.load_p9ulv1071_2 conn=wye bus1=p9ulv1071.2 kV=0.12 Vminpu=0.8 Vmaxpu=1.2 model=1 kW=1.7101501378288513 kvar=0.4527501720520811 Phases=1 // yearly=com_kw_17970_pu

New Load.load_p9ulv1132_1 conn=wye bus1=p9ulv1132.1 kV=0.12 Vminpu=0.8 Vmaxpu=1.2 model=1 kW=2.0462464292006315 kvar=0.5599056660717759 Phases=1 // yearly=com_kw_1330_pu

New Load.load_p9ulv1132_2 conn=wye bus1=p9ulv1132.2 kV=0.12 Vminpu=0.8 Vmaxpu=1.2 model=1 kW=2.0462464292006315 kvar=0.5599056660717759 Phases=1 // yearly=com_kw_1330_pu

New Load.load_p9ulv1147_1 conn=wye bus1=p9ulv1147.1 kV=0.12 Vminpu=0.8 Vmaxpu=1.2 model=1 kW=5.67088575765151 kvar=1.4725744530283946 Phases=1 // yearly=com_kw_35614_pu

New Load.load_p9ulv1147_2 conn=wye bus1=p9ulv1147.2 kV=0.12 Vminpu=0.8 Vmaxpu=1.2 model=1 kW=5.67088575765151 kvar=1.4725744530283946 Phases=1 // yearly=com_kw_35614_pu

New Load.load_p9ulv1256_1 conn=wye bus1=p9ulv1256.1 kV=0.12 Vminpu=0.8 Vmaxpu=1.2 model=1 kW=4.164684483515297 kvar=0.8919383655672628 Phases=1 // yearly=res_kw_118_pu

New Load.load_p9ulv1256_2 conn=wye bus1=p9ulv1256.2 kV=0.12 Vminpu=0.8 Vmaxpu=1.2 model=1 kW=4.164684483515297 kvar=0.8919383655672628 Phases=1 // yearly=res_kw_118_pu

New Load.load_p9ulv1294_1 conn=wye bus1=p9ulv1294.1 kV=0.12 Vminpu=0.8 Vmaxpu=1.2 model=1 kW=1.0350470871334572 kvar=0.31926954798908114 Phases=1 // yearly=res_kw_12336_pu

New Load.load_p9ulv1294_2 conn=wye bus1=p9ulv1294.2 kV=0.12 Vminpu=0.8 Vmaxpu=1.2 model=1 kW=1.0350470871334572 kvar=0.31926954798908114 Phases=1 // yearly=res_kw_12336_pu

New Load.load_p9ulv1295_1 conn=wye bus1=p9ulv1295.1 kV=0.12 Vminpu=0.8 Vmaxpu=1.2 model=1 kW=5.572051472862761 kvar=0.5265983188489483 Phases=1 // yearly=res_kw_193_pu

New Load.load_p9ulv1295_2 conn=wye bus1=p9ulv1295.2 kV=0.12 Vminpu=0.8 Vmaxpu=1.2 model=1 kW=5.572051472862761 kvar=0.5265983188489483 Phases=1 // yearly=res_kw_193_pu

New Load.load_p9ulv1315_1 conn=wye bus1=p9ulv1315.1 kV=0.12 Vminpu=0.8 Vmaxpu=1.2 model=1 kW=2.4684188652861323 kvar=0.9413190995271079 Phases=1 // yearly=res_kw_13274_pu

New Load.load_p9ulv1315_2 conn=wye bus1=p9ulv1315.2 kV=0.12 Vminpu=0.8 Vmaxpu=1.2 model=1 kW=2.4684188652861323 kvar=0.9413190995271079 Phases=1 // yearly=res_kw_13274_pu

New Load.load_p9ulv1434_1 conn=wye bus1=p9ulv1434.1 kV=0.12 Vminpu=0.8 Vmaxpu=1.2 model=1 kW=2.365256087534968 kvar=0.9406994095530364 Phases=1 // yearly=res_kw_7227_pu

New Load.load_p9ulv1434_2 conn=wye bus1=p9ulv1434.2 kV=0.12 Vminpu=0.8 Vmaxpu=1.2 model=1 kW=2.365256087534968 kvar=0.9406994095530364 Phases=1 // yearly=res_kw_7227_pu

New Load.load_p9ulv1454_1 conn=wye bus1=p9ulv1454.1 kV=0.12 Vminpu=0.8 Vmaxpu=1.2 model=1 kW=3.3729897643354136 kvar=0.8074671946641432 Phases=1 // yearly=com_kw_39334_pu

New Load.load_p9ulv1454_2 conn=wye bus1=p9ulv1454.2 kV=0.12 Vminpu=0.8 Vmaxpu=1.2 model=1 kW=3.3729897643354136 kvar=0.8074671946641432 Phases=1 // yearly=com_kw_39334_pu

New Load.load_p9ulv1460_1 conn=wye bus1=p9ulv1460.1 kV=0.12 Vminpu=0.8 Vmaxpu=1.2 model=1 kW=2.4146763306383106 kvar=0.6793582693447386 Phases=1 // yearly=com_kw_39448_pu

New Load.load_p9ulv1460_2 conn=wye bus1=p9ulv1460.2 kV=0.12 Vminpu=0.8 Vmaxpu=1.2 model=1 kW=2.4146763306383106 kvar=0.6793582693447386 Phases=1 // yearly=com_kw_39448_pu

New Load.load_p9ulv1475_1 conn=wye bus1=p9ulv1475.1 kV=0.12 Vminpu=0.8 Vmaxpu=1.2 model=1 kW=2.6009666033769583 kvar=0.30487867399122176 Phases=1 // yearly=com_kw_33842_pu

New Load.load_p9ulv1475_2 conn=wye bus1=p9ulv1475.2 kV=0.12 Vminpu=0.8 Vmaxpu=1.2 model=1 kW=2.6009666033769583 kvar=0.30487867399122176 Phases=1 // yearly=com_kw_33842_pu

New Load.load_p9ulv1486_1 conn=wye bus1=p9ulv1486.1 kV=0.12 Vminpu=0.8 Vmaxpu=1.2 model=1 kW=2.606959916668558 kvar=0.5550307077474157 Phases=1 // yearly=com_kw_33605_pu

New Load.load_p9ulv1486_2 conn=wye bus1=p9ulv1486.2 kV=0.12 Vminpu=0.8 Vmaxpu=1.2 model=1 kW=2.606959916668558 kvar=0.5550307077474157 Phases=1 // yearly=com_kw_33605_pu

New Load.load_p9ulv1539_1 conn=wye bus1=p9ulv1539.1 kV=0.12 Vminpu=0.8 Vmaxpu=1.2 model=1 kW=3.189766707780742 kvar=0.7894989280735729 Phases=1 // yearly=com_kw_1282_pu

New Load.load_p9ulv1539_2 conn=wye bus1=p9ulv1539.2 kV=0.12 Vminpu=0.8 Vmaxpu=1.2 model=1 kW=3.189766707780742 kvar=0.7894989280735729 Phases=1 // yearly=com_kw_1282_pu

New Load.load_p9ulv1565_1 conn=wye bus1=p9ulv1565.1 kV=0.12 Vminpu=0.8 Vmaxpu=1.2 model=1 kW=2.0904985594393217 kvar=0.5105756243535786 Phases=1 // yearly=res_kw_12175_pu

New Load.load_p9ulv1565_2 conn=wye bus1=p9ulv1565.2 kV=0.12 Vminpu=0.8 Vmaxpu=1.2 model=1 kW=2.0904985594393217 kvar=0.5105756243535786 Phases=1 // yearly=res_kw_12175_pu

New Load.load_p9ulv1689_1 conn=wye bus1=p9ulv1689.1 kV=0.12 Vminpu=0.8 Vmaxpu=1.2 model=1 kW=3.902887215219663 kvar=1.111231385342157 Phases=1 // yearly=com_kw_2430_pu

New Load.load_p9ulv1689_2 conn=wye bus1=p9ulv1689.2 kV=0.12 Vminpu=0.8 Vmaxpu=1.2 model=1 kW=3.902887215219663 kvar=1.111231385342157 Phases=1 // yearly=com_kw_2430_pu

New Load.load_p9ulv1695_1 conn=wye bus1=p9ulv1695.1 kV=0.12 Vminpu=0.8 Vmaxpu=1.2 model=1 kW=3.7955530160091877 kvar=0.9939393246787002 Phases=1 // yearly=com_kw_17799_pu

New Load.load_p9ulv1695_2 conn=wye bus1=p9ulv1695.2 kV=0.12 Vminpu=0.8 Vmaxpu=1.2 model=1 kW=3.7955530160091877 kvar=0.9939393246787002 Phases=1 // yearly=com_kw_17799_pu

New Load.load_p9ulv1792_1 conn=wye bus1=p9ulv1792.1 kV=0.12 Vminpu=0.8 Vmaxpu=1.2 model=1 kW=0.5912294000125895 kvar=0.19354732139808353 Phases=1 // yearly=res_kw_11587_pu

New Load.load_p9ulv1792_2 conn=wye bus1=p9ulv1792.2 kV=0.12 Vminpu=0.8 Vmaxpu=1.2 model=1 kW=0.5912294000125895 kvar=0.19354732139808353 Phases=1 // yearly=res_kw_11587_pu

New Load.load_p9ulv1836_1 conn=wye bus1=p9ulv1836.1 kV=0.12 Vminpu=0.8 Vmaxpu=1.2 model=1 kW=2.995049207208721 kvar=0.4426338885025277 Phases=1 // yearly=res_kw_9240_pu

New Load.load_p9ulv1836_2 conn=wye bus1=p9ulv1836.2 kV=0.12 Vminpu=0.8 Vmaxpu=1.2 model=1 kW=2.995049207208721 kvar=0.4426338885025277 Phases=1 // yearly=res_kw_9240_pu

New Load.load_p9ulv5879_1 conn=wye bus1=p9ulv5879.1 kV=0.12 Vminpu=0.8 Vmaxpu=1.2 model=1 kW=4.418656910066361 kvar=0.7109882064526241 Phases=1 // yearly=res_kw_9426_pu

New Load.load_p9ulv5879_2 conn=wye bus1=p9ulv5879.2 kV=0.12 Vminpu=0.8 Vmaxpu=1.2 model=1 kW=4.418656910066361 kvar=0.7109882064526241 Phases=1 // yearly=res_kw_9426_pu

New Load.load_p9ulv5881_1 conn=wye bus1=p9ulv5881.1 kV=0.12 Vminpu=0.8 Vmaxpu=1.2 model=1 kW=1.0817990316674126 kvar=0.6606347783342864 Phases=1 // yearly=res_kw_7820_pu

New Load.load_p9ulv5881_2 conn=wye bus1=p9ulv5881.2 kV=0.12 Vminpu=0.8 Vmaxpu=1.2 model=1 kW=1.0817990316674126 kvar=0.6606347783342864 Phases=1 // yearly=res_kw_7820_pu

New Load.load_p9ulv5883_1 conn=wye bus1=p9ulv5883.1 kV=0.12 Vminpu=0.8 Vmaxpu=1.2 model=1 kW=1.8935036303073511 kvar=0.6396227675481432 Phases=1 // yearly=res_kw_3224_pu

New Load.load_p9ulv5883_2 conn=wye bus1=p9ulv5883.2 kV=0.12 Vminpu=0.8 Vmaxpu=1.2 model=1 kW=1.8935036303073511 kvar=0.6396227675481432 Phases=1 // yearly=res_kw_3224_pu

New Load.load_p9ulv5885_1 conn=wye bus1=p9ulv5885.1 kV=0.12 Vminpu=0.8 Vmaxpu=1.2 model=1 kW=4.293779584533134 kvar=1.1220525721025665 Phases=1 // yearly=res_kw_9004_pu

New Load.load_p9ulv5885_2 conn=wye bus1=p9ulv5885.2 kV=0.12 Vminpu=0.8 Vmaxpu=1.2 model=1 kW=4.293779584533134 kvar=1.1220525721025665 Phases=1 // yearly=res_kw_9004_pu

New Load.load_p9ulv5890_1 conn=wye bus1=p9ulv5890.1 kV=0.12 Vminpu=0.8 Vmaxpu=1.2 model=1 kW=3.3058920020914284 kvar=0.6501096156270734 Phases=1 // yearly=res_kw_14308_pu

New Load.load_p9ulv5890_2 conn=wye bus1=p9ulv5890.2 kV=0.12 Vminpu=0.8 Vmaxpu=1.2 model=1 kW=3.3058920020914284 kvar=0.6501096156270734 Phases=1 // yearly=res_kw_14308_pu

New Load.load_p9ulv5894_1 conn=wye bus1=p9ulv5894.1 kV=0.12 Vminpu=0.8 Vmaxpu=1.2 model=1 kW=3.852572589968608 kvar=0.5195245616186438 Phases=1 // yearly=res_kw_4453_pu

New Load.load_p9ulv5894_2 conn=wye bus1=p9ulv5894.2 kV=0.12 Vminpu=0.8 Vmaxpu=1.2 model=1 kW=3.852572589968608 kvar=0.5195245616186438 Phases=1 // yearly=res_kw_4453_pu

New Load.load_p9ulv5902_1 conn=wye bus1=p9ulv5902.1 kV=0.12 Vminpu=0.8 Vmaxpu=1.2 model=1 kW=2.606959916668558 kvar=0.5550307077474157 Phases=1 // yearly=com_kw_33605_pu

New Load.load_p9ulv5902_2 conn=wye bus1=p9ulv5902.2 kV=0.12 Vminpu=0.8 Vmaxpu=1.2 model=1 kW=2.606959916668558 kvar=0.5550307077474157 Phases=1 // yearly=com_kw_33605_pu

New Load.load_p9ulv5928_1 conn=wye bus1=p9ulv5928.1 kV=0.12 Vminpu=0.8 Vmaxpu=1.2 model=1 kW=1.9920550244580673 kvar=1.016709072862991 Phases=1 // yearly=res_kw_11756_pu

New Load.load_p9ulv5928_2 conn=wye bus1=p9ulv5928.2 kV=0.12 Vminpu=0.8 Vmaxpu=1.2 model=1 kW=1.9920550244580673 kvar=1.016709072862991 Phases=1 // yearly=res_kw_11756_pu

New Load.load_p9ulv5931_1 conn=wye bus1=p9ulv5931.1 kV=0.12 Vminpu=0.8 Vmaxpu=1.2 model=1 kW=3.460395323670255 kvar=0.4585736120679708 Phases=1 // yearly=res_kw_1463_pu

New Load.load_p9ulv5931_2 conn=wye bus1=p9ulv5931.2 kV=0.12 Vminpu=0.8 Vmaxpu=1.2 model=1 kW=3.460395323670255 kvar=0.4585736120679708 Phases=1 // yearly=res_kw_1463_pu

New Load.load_p9ulv5955_1 conn=wye bus1=p9ulv5955.1 kV=0.12 Vminpu=0.8 Vmaxpu=1.2 model=1 kW=1.941898785419248 kvar=0.8498359578625553 Phases=1 // yearly=res_kw_705_pu

New Load.load_p9ulv5955_2 conn=wye bus1=p9ulv5955.2 kV=0.12 Vminpu=0.8 Vmaxpu=1.2 model=1 kW=1.941898785419248 kvar=0.8498359578625553 Phases=1 // yearly=res_kw_705_pu

New Load.load_p9ulv5966_1 conn=wye bus1=p9ulv5966.1 kV=0.12 Vminpu=0.8 Vmaxpu=1.2 model=1 kW=1.0817990316674126 kvar=0.6606347783342864 Phases=1 // yearly=res_kw_7820_pu

New Load.load_p9ulv5966_2 conn=wye bus1=p9ulv5966.2 kV=0.12 Vminpu=0.8 Vmaxpu=1.2 model=1 kW=1.0817990316674126 kvar=0.6606347783342864 Phases=1 // yearly=res_kw_7820_pu

New Load.load_p9ulv5989_1 conn=wye bus1=p9ulv5989.1 kV=0.12 Vminpu=0.8 Vmaxpu=1.2 model=1 kW=2.5395919375010116 kvar=0.5140082591309048 Phases=1 // yearly=res_kw_11369_pu

New Load.load_p9ulv5989_2 conn=wye bus1=p9ulv5989.2 kV=0.12 Vminpu=0.8 Vmaxpu=1.2 model=1 kW=2.5395919375010116 kvar=0.5140082591309048 Phases=1 // yearly=res_kw_11369_pu

New Load.load_p9ulv5992_1 conn=wye bus1=p9ulv5992.1 kV=0.12 Vminpu=0.8 Vmaxpu=1.2 model=1 kW=1.3656179673346736 kvar=0.3228496606319008 Phases=1 // yearly=res_kw_10457_pu

New Load.load_p9ulv5992_2 conn=wye bus1=p9ulv5992.2 kV=0.12 Vminpu=0.8 Vmaxpu=1.2 model=1 kW=1.3656179673346736 kvar=0.3228496606319008 Phases=1 // yearly=res_kw_10457_pu

New Load.load_p9ulv25911_1 conn=wye bus1=p9ulv25911.1 kV=0.12 Vminpu=0.8 Vmaxpu=1.2 model=1 kW=6.365522959804561 kvar=1.0575527801290123 Phases=1 // yearly=res_kw_12166_pu

New Load.load_p9ulv25911_2 conn=wye bus1=p9ulv25911.2 kV=0.12 Vminpu=0.8 Vmaxpu=1.2 model=1 kW=6.365522959804561 kvar=1.0575527801290123 Phases=1 // yearly=res_kw_12166_pu

New Load.load_p9ulv26024_1 conn=wye bus1=p9ulv26024.1 kV=0.12 Vminpu=0.8 Vmaxpu=1.2 model=1 kW=2.0274615413521535 kvar=0.6552433499299765 Phases=1 // yearly=res_kw_4760_pu

New Load.load_p9ulv26024_2 conn=wye bus1=p9ulv26024.2 kV=0.12 Vminpu=0.8 Vmaxpu=1.2 model=1 kW=2.0274615413521535 kvar=0.6552433499299765 Phases=1 // yearly=res_kw_4760_pu

New Load.load_p9ulv26041_1 conn=wye bus1=p9ulv26041.1 kV=0.12 Vminpu=0.8 Vmaxpu=1.2 model=1 kW=4.615255606432305 kvar=1.121274580951071 Phases=1 // yearly=res_kw_9421_pu

New Load.load_p9ulv26041_2 conn=wye bus1=p9ulv26041.2 kV=0.12 Vminpu=0.8 Vmaxpu=1.2 model=1 kW=4.615255606432305 kvar=1.121274580951071 Phases=1 // yearly=res_kw_9421_pu

New Load.load_p9ulv26047_1 conn=wye bus1=p9ulv26047.1 kV=0.12 Vminpu=0.8 Vmaxpu=1.2 model=1 kW=3.3355496206844197 kvar=0.7086239514312075 Phases=1 // yearly=res_kw_11409_pu

New Load.load_p9ulv26047_2 conn=wye bus1=p9ulv26047.2 kV=0.12 Vminpu=0.8 Vmaxpu=1.2 model=1 kW=3.3355496206844197 kvar=0.7086239514312075 Phases=1 // yearly=res_kw_11409_pu

New Load.load_p9ulv27556_1 conn=wye bus1=p9ulv27556.1 kV=0.12 Vminpu=0.8 Vmaxpu=1.2 model=1 kW=1.0817990316674126 kvar=0.6606347783342864 Phases=1 // yearly=res_kw_7820_pu

New Load.load_p9ulv27556_2 conn=wye bus1=p9ulv27556.2 kV=0.12 Vminpu=0.8 Vmaxpu=1.2 model=1 kW=1.0817990316674126 kvar=0.6606347783342864 Phases=1 // yearly=res_kw_7820_pu

New Load.load_p9ulv27557_1 conn=wye bus1=p9ulv27557.1 kV=0.12 Vminpu=0.8 Vmaxpu=1.2 model=1 kW=6.942713632278428 kvar=0.7416469834095875 Phases=1 // yearly=res_kw_1927_pu

New Load.load_p9ulv27557_2 conn=wye bus1=p9ulv27557.2 kV=0.12 Vminpu=0.8 Vmaxpu=1.2 model=1 kW=6.942713632278428 kvar=0.7416469834095875 Phases=1 // yearly=res_kw_1927_pu

New Load.load_p9ulv27558_1 conn=wye bus1=p9ulv27558.1 kV=0.12 Vminpu=0.8 Vmaxpu=1.2 model=1 kW=3.8752073405870897 kvar=0.7478365528746037 Phases=1 // yearly=res_kw_761_pu

New Load.load_p9ulv27558_2 conn=wye bus1=p9ulv27558.2 kV=0.12 Vminpu=0.8 Vmaxpu=1.2 model=1 kW=3.8752073405870897 kvar=0.7478365528746037 Phases=1 // yearly=res_kw_761_pu

New Load.load_p9ulv27560_1 conn=wye bus1=p9ulv27560.1 kV=0.12 Vminpu=0.8 Vmaxpu=1.2 model=1 kW=1.0493298304993284 kvar=0.36105963672766206 Phases=1 // yearly=res_kw_459_pu

New Load.load_p9ulv27560_2 conn=wye bus1=p9ulv27560.2 kV=0.12 Vminpu=0.8 Vmaxpu=1.2 model=1 kW=1.0493298304993284 kvar=0.36105963672766206 Phases=1 // yearly=res_kw_459_pu

New Load.load_p9ulv27562_1 conn=wye bus1=p9ulv27562.1 kV=0.12 Vminpu=0.8 Vmaxpu=1.2 model=1 kW=2.39355465643192 kvar=0.17863921508095826 Phases=1 // yearly=res_kw_13798_pu

New Load.load_p9ulv27562_2 conn=wye bus1=p9ulv27562.2 kV=0.12 Vminpu=0.8 Vmaxpu=1.2 model=1 kW=2.39355465643192 kvar=0.17863921508095826 Phases=1 // yearly=res_kw_13798_pu

New Load.load_p9ulv27566_1 conn=wye bus1=p9ulv27566.1 kV=0.12 Vminpu=0.8 Vmaxpu=1.2 model=1 kW=3.22312593006094 kvar=0.5765288639424796 Phases=1 // yearly=res_kw_2019_pu

New Load.load_p9ulv27566_2 conn=wye bus1=p9ulv27566.2 kV=0.12 Vminpu=0.8 Vmaxpu=1.2 model=1 kW=3.22312593006094 kvar=0.5765288639424796 Phases=1 // yearly=res_kw_2019_pu

New Load.load_p9ulv27567_1 conn=wye bus1=p9ulv27567.1 kV=0.12 Vminpu=0.8 Vmaxpu=1.2 model=1 kW=1.1471518771825253 kvar=0.28913461877012253 Phases=1 // yearly=res_kw_13863_pu

New Load.load_p9ulv27567_2 conn=wye bus1=p9ulv27567.2 kV=0.12 Vminpu=0.8 Vmaxpu=1.2 model=1 kW=1.1471518771825253 kvar=0.28913461877012253 Phases=1 // yearly=res_kw_13863_pu

New Load.load_p9ulv27568_1 conn=wye bus1=p9ulv27568.1 kV=0.12 Vminpu=0.8 Vmaxpu=1.2 model=1 kW=2.170734190354813 kvar=0.7801404766144338 Phases=1 // yearly=res_kw_11345_pu

New Load.load_p9ulv27568_2 conn=wye bus1=p9ulv27568.2 kV=0.12 Vminpu=0.8 Vmaxpu=1.2 model=1 kW=2.170734190354813 kvar=0.7801404766144338 Phases=1 // yearly=res_kw_11345_pu

New Load.load_p9ulv27569_1 conn=wye bus1=p9ulv27569.1 kV=0.12 Vminpu=0.8 Vmaxpu=1.2 model=1 kW=3.8567240759430046 kvar=0.7946278844258864 Phases=1 // yearly=res_kw_2441_pu

New Load.load_p9ulv27569_2 conn=wye bus1=p9ulv27569.2 kV=0.12 Vminpu=0.8 Vmaxpu=1.2 model=1 kW=3.8567240759430046 kvar=0.7946278844258864 Phases=1 // yearly=res_kw_2441_pu

New Load.load_p9ulv27573_1 conn=wye bus1=p9ulv27573.1 kV=0.12 Vminpu=0.8 Vmaxpu=1.2 model=1 kW=4.277687713775056 kvar=1.0620757586547218 Phases=1 // yearly=res_kw_8876_pu

New Load.load_p9ulv27573_2 conn=wye bus1=p9ulv27573.2 kV=0.12 Vminpu=0.8 Vmaxpu=1.2 model=1 kW=4.277687713775056 kvar=1.0620757586547218 Phases=1 // yearly=res_kw_8876_pu

New Load.load_p9ulv27575_1 conn=wye bus1=p9ulv27575.1 kV=0.12 Vminpu=0.8 Vmaxpu=1.2 model=1 kW=2.1545670008895326 kvar=0.10358662309965033 Phases=1 // yearly=com_kw_18088_pu

New Load.load_p9ulv27575_2 conn=wye bus1=p9ulv27575.2 kV=0.12 Vminpu=0.8 Vmaxpu=1.2 model=1 kW=2.1545670008895326 kvar=0.10358662309965033 Phases=1 // yearly=com_kw_18088_pu

New Load.load_p9ulv27576_1 conn=wye bus1=p9ulv27576.1 kV=0.12 Vminpu=0.8 Vmaxpu=1.2 model=1 kW=2.290770207979584 kvar=0.15121699106508624 Phases=1 // yearly=res_kw_7051_pu

New Load.load_p9ulv27576_2 conn=wye bus1=p9ulv27576.2 kV=0.12 Vminpu=0.8 Vmaxpu=1.2 model=1 kW=2.290770207979584 kvar=0.15121699106508624 Phases=1 // yearly=res_kw_7051_pu

New Load.load_p9ulv27580_1 conn=wye bus1=p9ulv27580.1 kV=0.12 Vminpu=0.8 Vmaxpu=1.2 model=1 kW=6.604571863920894 kvar=1.2396562616470856 Phases=1 // yearly=res_kw_2030_pu

New Load.load_p9ulv27580_2 conn=wye bus1=p9ulv27580.2 kV=0.12 Vminpu=0.8 Vmaxpu=1.2 model=1 kW=6.604571863920894 kvar=1.2396562616470856 Phases=1 // yearly=res_kw_2030_pu

New Load.load_p9ulv27581_1 conn=wye bus1=p9ulv27581.1 kV=0.12 Vminpu=0.8 Vmaxpu=1.2 model=1 kW=0.8782717353851598 kvar=0.44278187719224826 Phases=1 // yearly=res_kw_11018_pu

New Load.load_p9ulv27581_2 conn=wye bus1=p9ulv27581.2 kV=0.12 Vminpu=0.8 Vmaxpu=1.2 model=1 kW=0.8782717353851598 kvar=0.44278187719224826 Phases=1 // yearly=res_kw_11018_pu

New Load.load_p9ulv27588_1 conn=wye bus1=p9ulv27588.1 kV=0.12 Vminpu=0.8 Vmaxpu=1.2 model=1 kW=1.2088506432806283 kvar=0.46244900768195996 Phases=1 // yearly=res_kw_2215_pu

New Load.load_p9ulv27588_2 conn=wye bus1=p9ulv27588.2 kV=0.12 Vminpu=0.8 Vmaxpu=1.2 model=1 kW=1.2088506432806283 kvar=0.46244900768195996 Phases=1 // yearly=res_kw_2215_pu

New Load.load_p9ulv27589_1 conn=wye bus1=p9ulv27589.1 kV=0.12 Vminpu=0.8 Vmaxpu=1.2 model=1 kW=0.957835778070604 kvar=0.27722386160783197 Phases=1 // yearly=res_kw_11723_pu

New Load.load_p9ulv27589_2 conn=wye bus1=p9ulv27589.2 kV=0.12 Vminpu=0.8 Vmaxpu=1.2 model=1 kW=0.957835778070604 kvar=0.27722386160783197 Phases=1 // yearly=res_kw_11723_pu

New Load.load_p9ulv27590_1 conn=wye bus1=p9ulv27590.1 kV=0.12 Vminpu=0.8 Vmaxpu=1.2 model=1 kW=1.1171174732694102 kvar=0.5510818032436708 Phases=1 // yearly=res_kw_14265_pu

New Load.load_p9ulv27590_2 conn=wye bus1=p9ulv27590.2 kV=0.12 Vminpu=0.8 Vmaxpu=1.2 model=1 kW=1.1171174732694102 kvar=0.5510818032436708 Phases=1 // yearly=res_kw_14265_pu

New Load.load_p9ulv27591_1 conn=wye bus1=p9ulv27591.1 kV=0.12 Vminpu=0.8 Vmaxpu=1.2 model=1 kW=1.8309189378455104 kvar=0.6069744647018672 Phases=1 // yearly=res_kw_10071_pu

New Load.load_p9ulv27591_2 conn=wye bus1=p9ulv27591.2 kV=0.12 Vminpu=0.8 Vmaxpu=1.2 model=1 kW=1.8309189378455104 kvar=0.6069744647018672 Phases=1 // yearly=res_kw_10071_pu

New Load.load_p9ulv27593_1 conn=wye bus1=p9ulv27593.1 kV=0.12 Vminpu=0.8 Vmaxpu=1.2 model=1 kW=1.3067870545822593 kvar=0.7187638131848453 Phases=1 // yearly=res_kw_12787_pu

New Load.load_p9ulv27593_2 conn=wye bus1=p9ulv27593.2 kV=0.12 Vminpu=0.8 Vmaxpu=1.2 model=1 kW=1.3067870545822593 kvar=0.7187638131848453 Phases=1 // yearly=res_kw_12787_pu

New Load.load_p9ulv27594_1 conn=wye bus1=p9ulv27594.1 kV=0.12 Vminpu=0.8 Vmaxpu=1.2 model=1 kW=4.346123164782175 kvar=0.6166951440755365 Phases=1 // yearly=res_kw_12297_pu

New Load.load_p9ulv27594_2 conn=wye bus1=p9ulv27594.2 kV=0.12 Vminpu=0.8 Vmaxpu=1.2 model=1 kW=4.346123164782175 kvar=0.6166951440755365 Phases=1 // yearly=res_kw_12297_pu

New Load.load_p9ulv27602_1 conn=wye bus1=p9ulv27602.1 kV=0.12 Vminpu=0.8 Vmaxpu=1.2 model=1 kW=2.292799122473319 kvar=0.5385753507809203 Phases=1 // yearly=res_kw_7613_pu

New Load.load_p9ulv27602_2 conn=wye bus1=p9ulv27602.2 kV=0.12 Vminpu=0.8 Vmaxpu=1.2 model=1 kW=2.292799122473319 kvar=0.5385753507809203 Phases=1 // yearly=res_kw_7613_pu

New Load.load_p9ulv27606_1 conn=wye bus1=p9ulv27606.1 kV=0.12 Vminpu=0.8 Vmaxpu=1.2 model=1 kW=3.6669289783709 kvar=0.056901546523703654 Phases=1 // yearly=res_kw_11932_pu

New Load.load_p9ulv27606_2 conn=wye bus1=p9ulv27606.2 kV=0.12 Vminpu=0.8 Vmaxpu=1.2 model=1 kW=3.6669289783709 kvar=0.056901546523703654 Phases=1 // yearly=res_kw_11932_pu

New Load.load_p9ulv27608_1 conn=wye bus1=p9ulv27608.1 kV=0.12 Vminpu=0.8 Vmaxpu=1.2 model=1 kW=2.6042850169341674 kvar=0.7157114287880095 Phases=1 // yearly=res_kw_3803_pu

New Load.load_p9ulv27608_2 conn=wye bus1=p9ulv27608.2 kV=0.12 Vminpu=0.8 Vmaxpu=1.2 model=1 kW=2.6042850169341674 kvar=0.7157114287880095 Phases=1 // yearly=res_kw_3803_pu

New Load.load_p9ulv27609_1 conn=wye bus1=p9ulv27609.1 kV=0.12 Vminpu=0.8 Vmaxpu=1.2 model=1 kW=2.725954562298933 kvar=0.5866148963219024 Phases=1 // yearly=com_kw_29469_pu

New Load.load_p9ulv27609_2 conn=wye bus1=p9ulv27609.2 kV=0.12 Vminpu=0.8 Vmaxpu=1.2 model=1 kW=2.725954562298933 kvar=0.5866148963219024 Phases=1 // yearly=com_kw_29469_pu

New Load.load_p9ulv27610_1 conn=wye bus1=p9ulv27610.1 kV=0.12 Vminpu=0.8 Vmaxpu=1.2 model=1 kW=0.4585094523583652 kvar=0.19519922093662737 Phases=1 // yearly=res_kw_14441_pu

New Load.load_p9ulv27610_2 conn=wye bus1=p9ulv27610.2 kV=0.12 Vminpu=0.8 Vmaxpu=1.2 model=1 kW=0.4585094523583652 kvar=0.19519922093662737 Phases=1 // yearly=res_kw_14441_pu

New Load.load_p9ulv27613_1 conn=wye bus1=p9ulv27613.1 kV=0.12 Vminpu=0.8 Vmaxpu=1.2 model=1 kW=2.0240502132333855 kvar=0.5295456567023789 Phases=1 // yearly=res_kw_10487_pu

New Load.load_p9ulv27613_2 conn=wye bus1=p9ulv27613.2 kV=0.12 Vminpu=0.8 Vmaxpu=1.2 model=1 kW=2.0240502132333855 kvar=0.5295456567023789 Phases=1 // yearly=res_kw_10487_pu

New Load.load_p9ulv27615_1 conn=wye bus1=p9ulv27615.1 kV=0.12 Vminpu=0.8 Vmaxpu=1.2 model=1 kW=3.8314631241727697 kvar=1.1623073278877538 Phases=1 // yearly=res_kw_13230_pu

New Load.load_p9ulv27615_2 conn=wye bus1=p9ulv27615.2 kV=0.12 Vminpu=0.8 Vmaxpu=1.2 model=1 kW=3.8314631241727697 kvar=1.1623073278877538 Phases=1 // yearly=res_kw_13230_pu

New Load.load_p9ulv27616_1 conn=wye bus1=p9ulv27616.1 kV=0.12 Vminpu=0.8 Vmaxpu=1.2 model=1 kW=2.0959958307477873 kvar=0.09918350537011804 Phases=1 // yearly=res_kw_5178_pu

New Load.load_p9ulv27616_2 conn=wye bus1=p9ulv27616.2 kV=0.12 Vminpu=0.8 Vmaxpu=1.2 model=1 kW=2.0959958307477873 kvar=0.09918350537011804 Phases=1 // yearly=res_kw_5178_pu

New Load.load_p9ulv27623_1 conn=wye bus1=p9ulv27623.1 kV=0.12 Vminpu=0.8 Vmaxpu=1.2 model=1 kW=6.552966880528787 kvar=0.8919938936546128 Phases=1 // yearly=res_kw_4584_pu

New Load.load_p9ulv27623_2 conn=wye bus1=p9ulv27623.2 kV=0.12 Vminpu=0.8 Vmaxpu=1.2 model=1 kW=6.552966880528787 kvar=0.8919938936546128 Phases=1 // yearly=res_kw_4584_pu

New Load.load_p9ulv27625_1 conn=wye bus1=p9ulv27625.1 kV=0.12 Vminpu=0.8 Vmaxpu=1.2 model=1 kW=2.618088489787842 kvar=0.20923793518521916 Phases=1 // yearly=res_kw_10572_pu

New Load.load_p9ulv27625_2 conn=wye bus1=p9ulv27625.2 kV=0.12 Vminpu=0.8 Vmaxpu=1.2 model=1 kW=2.618088489787842 kvar=0.20923793518521916 Phases=1 // yearly=res_kw_10572_pu

New Load.load_p9ulv27627_1 conn=wye bus1=p9ulv27627.1 kV=0.12 Vminpu=0.8 Vmaxpu=1.2 model=1 kW=7.8801930784369265 kvar=1.0115137645096066 Phases=1 // yearly=res_kw_13840_pu

New Load.load_p9ulv27627_2 conn=wye bus1=p9ulv27627.2 kV=0.12 Vminpu=0.8 Vmaxpu=1.2 model=1 kW=7.8801930784369265 kvar=1.0115137645096066 Phases=1 // yearly=res_kw_13840_pu

New Load.load_p9ulv27628_1 conn=wye bus1=p9ulv27628.1 kV=0.12 Vminpu=0.8 Vmaxpu=1.2 model=1 kW=7.853291162119347 kvar=1.8256553054609097 Phases=1 // yearly=res_kw_1592_pu

New Load.load_p9ulv27628_2 conn=wye bus1=p9ulv27628.2 kV=0.12 Vminpu=0.8 Vmaxpu=1.2 model=1 kW=7.853291162119347 kvar=1.8256553054609097 Phases=1 // yearly=res_kw_1592_pu

New Load.load_p9ulv27633_1 conn=wye bus1=p9ulv27633.1 kV=0.12 Vminpu=0.8 Vmaxpu=1.2 model=1 kW=1.4858874913858207 kvar=0.6099798193501557 Phases=1 // yearly=res_kw_9710_pu

New Load.load_p9ulv27633_2 conn=wye bus1=p9ulv27633.2 kV=0.12 Vminpu=0.8 Vmaxpu=1.2 model=1 kW=1.4858874913858207 kvar=0.6099798193501557 Phases=1 // yearly=res_kw_9710_pu

New Load.load_p9ulv27634_1 conn=wye bus1=p9ulv27634.1 kV=0.12 Vminpu=0.8 Vmaxpu=1.2 model=1 kW=3.1424806738377318 kvar=0.6555731304434089 Phases=1 // yearly=res_kw_9760_pu

New Load.load_p9ulv27634_2 conn=wye bus1=p9ulv27634.2 kV=0.12 Vminpu=0.8 Vmaxpu=1.2 model=1 kW=3.1424806738377318 kvar=0.6555731304434089 Phases=1 // yearly=res_kw_9760_pu

New Load.load_p9ulv27637_1 conn=wye bus1=p9ulv27637.1 kV=0.12 Vminpu=0.8 Vmaxpu=1.2 model=1 kW=3.3018265224045242 kvar=0.4135325648663858 Phases=1 // yearly=res_kw_3108_pu

New Load.load_p9ulv27637_2 conn=wye bus1=p9ulv27637.2 kV=0.12 Vminpu=0.8 Vmaxpu=1.2 model=1 kW=3.3018265224045242 kvar=0.4135325648663858 Phases=1 // yearly=res_kw_3108_pu

New Load.load_p9ulv27638_1 conn=wye bus1=p9ulv27638.1 kV=0.12 Vminpu=0.8 Vmaxpu=1.2 model=1 kW=2.1030887259403688 kvar=0.7159529261783519 Phases=1 // yearly=res_kw_11346_pu

New Load.load_p9ulv27638_2 conn=wye bus1=p9ulv27638.2 kV=0.12 Vminpu=0.8 Vmaxpu=1.2 model=1 kW=2.1030887259403688 kvar=0.7159529261783519 Phases=1 // yearly=res_kw_11346_pu

New Load.load_p9ulv42969_1 conn=wye bus1=p9ulv42969.1 kV=0.12 Vminpu=0.8 Vmaxpu=1.2 model=1 kW=2.445994317964332 kvar=0.8597073331859654 Phases=1 // yearly=res_kw_13148_pu

New Load.load_p9ulv42969_2 conn=wye bus1=p9ulv42969.2 kV=0.12 Vminpu=0.8 Vmaxpu=1.2 model=1 kW=2.445994317964332 kvar=0.8597073331859654 Phases=1 // yearly=res_kw_13148_pu

New Load.load_p9ulv42971_1 conn=wye bus1=p9ulv42971.1 kV=0.12 Vminpu=0.8 Vmaxpu=1.2 model=1 kW=2.3838238331101067 kvar=0.6310398163425045 Phases=1 // yearly=res_kw_2675_pu

New Load.load_p9ulv42971_2 conn=wye bus1=p9ulv42971.2 kV=0.12 Vminpu=0.8 Vmaxpu=1.2 model=1 kW=2.3838238331101067 kvar=0.6310398163425045 Phases=1 // yearly=res_kw_2675_pu

New Load.load_p9ulv42976_1 conn=wye bus1=p9ulv42976.1 kV=0.12 Vminpu=0.8 Vmaxpu=1.2 model=1 kW=1.4805255550592118 kvar=0.6152224913849972 Phases=1 // yearly=res_kw_9431_pu

New Load.load_p9ulv42976_2 conn=wye bus1=p9ulv42976.2 kV=0.12 Vminpu=0.8 Vmaxpu=1.2 model=1 kW=1.4805255550592118 kvar=0.6152224913849972 Phases=1 // yearly=res_kw_9431_pu

New Load.load_p9ulv42978_1 conn=wye bus1=p9ulv42978.1 kV=0.12 Vminpu=0.8 Vmaxpu=1.2 model=1 kW=4.995426075816152 kvar=1.0586436998812154 Phases=1 // yearly=res_kw_13818_pu

New Load.load_p9ulv42978_2 conn=wye bus1=p9ulv42978.2 kV=0.12 Vminpu=0.8 Vmaxpu=1.2 model=1 kW=4.995426075816152 kvar=1.0586436998812154 Phases=1 // yearly=res_kw_13818_pu

New Load.load_p9ulv42982_1 conn=wye bus1=p9ulv42982.1 kV=0.12 Vminpu=0.8 Vmaxpu=1.2 model=1 kW=2.4114792115532713 kvar=0.389628178883119 Phases=1 // yearly=res_kw_2179_pu

New Load.load_p9ulv42982_2 conn=wye bus1=p9ulv42982.2 kV=0.12 Vminpu=0.8 Vmaxpu=1.2 model=1 kW=2.4114792115532713 kvar=0.389628178883119 Phases=1 // yearly=res_kw_2179_pu

New Load.load_p9ulv42987_1 conn=wye bus1=p9ulv42987.1 kV=0.12 Vminpu=0.8 Vmaxpu=1.2 model=1 kW=2.0953347895388337 kvar=0.8384825915430092 Phases=1 // yearly=res_kw_2978_pu

New Load.load_p9ulv42987_2 conn=wye bus1=p9ulv42987.2 kV=0.12 Vminpu=0.8 Vmaxpu=1.2 model=1 kW=2.0953347895388337 kvar=0.8384825915430092 Phases=1 // yearly=res_kw_2978_pu

New Load.load_p9ulv42991_1 conn=wye bus1=p9ulv42991.1 kV=0.12 Vminpu=0.8 Vmaxpu=1.2 model=1 kW=4.542113174533756 kvar=1.151257055509776 Phases=1 // yearly=res_kw_11663_pu

New Load.load_p9ulv42991_2 conn=wye bus1=p9ulv42991.2 kV=0.12 Vminpu=0.8 Vmaxpu=1.2 model=1 kW=4.542113174533756 kvar=1.151257055509776 Phases=1 // yearly=res_kw_11663_pu

New Load.load_p9ulv42992_1 conn=wye bus1=p9ulv42992.1 kV=0.12 Vminpu=0.8 Vmaxpu=1.2 model=1 kW=7.264241630300054 kvar=1.377589928507085 Phases=1 // yearly=res_kw_14386_pu

New Load.load_p9ulv42992_2 conn=wye bus1=p9ulv42992.2 kV=0.12 Vminpu=0.8 Vmaxpu=1.2 model=1 kW=7.264241630300054 kvar=1.377589928507085 Phases=1 // yearly=res_kw_14386_pu

New Load.load_p9ulv42993_1 conn=wye bus1=p9ulv42993.1 kV=0.12 Vminpu=0.8 Vmaxpu=1.2 model=1 kW=2.4622944887503224 kvar=0.10483650830237357 Phases=1 // yearly=res_kw_14952_pu

New Load.load_p9ulv42993_2 conn=wye bus1=p9ulv42993.2 kV=0.12 Vminpu=0.8 Vmaxpu=1.2 model=1 kW=2.4622944887503224 kvar=0.10483650830237357 Phases=1 // yearly=res_kw_14952_pu

New Load.load_p9ulv42996_1 conn=wye bus1=p9ulv42996.1 kV=0.12 Vminpu=0.8 Vmaxpu=1.2 model=1 kW=2.8139112939185087 kvar=0.6712267712749191 Phases=1 // yearly=res_kw_5464_pu

New Load.load_p9ulv42996_2 conn=wye bus1=p9ulv42996.2 kV=0.12 Vminpu=0.8 Vmaxpu=1.2 model=1 kW=2.8139112939185087 kvar=0.6712267712749191 Phases=1 // yearly=res_kw_5464_pu

New Load.load_p9ulv42999_1 conn=wye bus1=p9ulv42999.1 kV=0.12 Vminpu=0.8 Vmaxpu=1.2 model=1 kW=3.680916435312101 kvar=0.9210390913249372 Phases=1 // yearly=res_kw_11633_pu

New Load.load_p9ulv42999_2 conn=wye bus1=p9ulv42999.2 kV=0.12 Vminpu=0.8 Vmaxpu=1.2 model=1 kW=3.680916435312101 kvar=0.9210390913249372 Phases=1 // yearly=res_kw_11633_pu

New Load.load_p9ulv43009_1 conn=wye bus1=p9ulv43009.1 kV=0.12 Vminpu=0.8 Vmaxpu=1.2 model=1 kW=0.5499319808602112 kvar=0.2465150718731506 Phases=1 // yearly=res_kw_6119_pu

New Load.load_p9ulv43009_2 conn=wye bus1=p9ulv43009.2 kV=0.12 Vminpu=0.8 Vmaxpu=1.2 model=1 kW=0.5499319808602112 kvar=0.2465150718731506 Phases=1 // yearly=res_kw_6119_pu

New Load.load_p9ulv43010_1 conn=wye bus1=p9ulv43010.1 kV=0.12 Vminpu=0.8 Vmaxpu=1.2 model=1 kW=2.2062845147536065 kvar=0.4316765920783149 Phases=1 // yearly=res_kw_8260_pu

New Load.load_p9ulv43010_2 conn=wye bus1=p9ulv43010.2 kV=0.12 Vminpu=0.8 Vmaxpu=1.2 model=1 kW=2.2062845147536065 kvar=0.4316765920783149 Phases=1 // yearly=res_kw_8260_pu

New Load.load_p9ulv43013_1 conn=wye bus1=p9ulv43013.1 kV=0.12 Vminpu=0.8 Vmaxpu=1.2 model=1 kW=4.542113174533756 kvar=1.151257055509776 Phases=1 // yearly=res_kw_11663_pu

New Load.load_p9ulv43013_2 conn=wye bus1=p9ulv43013.2 kV=0.12 Vminpu=0.8 Vmaxpu=1.2 model=1 kW=4.542113174533756 kvar=1.151257055509776 Phases=1 // yearly=res_kw_11663_pu

New Load.load_p9ulv43016_1 conn=wye bus1=p9ulv43016.1 kV=0.12 Vminpu=0.8 Vmaxpu=1.2 model=1 kW=2.8928731343757987 kvar=1.0067082172753379 Phases=1 // yearly=res_kw_8338_pu

New Load.load_p9ulv43016_2 conn=wye bus1=p9ulv43016.2 kV=0.12 Vminpu=0.8 Vmaxpu=1.2 model=1 kW=2.8928731343757987 kvar=1.0067082172753379 Phases=1 // yearly=res_kw_8338_pu
