New Loadshape.SFO_38.4407_-122.9591_15_180 npts= 35040 interval=0.25 mult = (file=../../../../../profiles/SFO_38.4407_-122.9591_15_180.csv)

New Loadshape.SFO_38.4407_-122.9591_35_225 npts= 35040 interval=0.25 mult = (file=../../../../../profiles/SFO_38.4407_-122.9591_35_225.csv)

New Loadshape.SFO_38.4407_-122.9591_35_180 npts= 35040 interval=0.25 mult = (file=../../../../../profiles/SFO_38.4407_-122.9591_35_180.csv)

New Loadshape.SFO_38.4407_-122.9591_15_90 npts= 35040 interval=0.25 mult = (file=../../../../../profiles/SFO_38.4407_-122.9591_15_90.csv)

New Loadshape.SFO_38.4407_-122.9591_25_270 npts= 35040 interval=0.25 mult = (file=../../../../../profiles/SFO_38.4407_-122.9591_25_270.csv)

New Loadshape.SFO_38.4407_-122.9591_15_135 npts= 35040 interval=0.25 mult = (file=../../../../../profiles/SFO_38.4407_-122.9591_15_135.csv)

New Loadshape.SFO_38.4407_-122.9591_45_270 npts= 35040 interval=0.25 mult = (file=../../../../../profiles/SFO_38.4407_-122.9591_45_270.csv)

New Loadshape.SFO_38.4407_-122.9591_15_270 npts= 35040 interval=0.25 mult = (file=../../../../../profiles/SFO_38.4407_-122.9591_15_270.csv)

New Loadshape.SFO_38.4407_-122.9591_25_225 npts= 35040 interval=0.25 mult = (file=../../../../../profiles/SFO_38.4407_-122.9591_25_225.csv)

New Loadshape.SFO_38.4407_-122.9591_25_135 npts= 35040 interval=0.25 mult = (file=../../../../../profiles/SFO_38.4407_-122.9591_25_135.csv)

New Loadshape.SFO_38.4407_-122.9591_25_90 npts= 35040 interval=0.25 mult = (file=../../../../../profiles/SFO_38.4407_-122.9591_25_90.csv)

New Loadshape.SFO_38.4407_-122.9591_25_180 npts= 35040 interval=0.25 mult = (file=../../../../../profiles/SFO_38.4407_-122.9591_25_180.csv)

New Loadshape.SFO_38.4407_-122.9591_35_90 npts= 35040 interval=0.25 mult = (file=../../../../../profiles/SFO_38.4407_-122.9591_35_90.csv)

New Loadshape.SFO_38.4407_-122.9591_35_270 npts= 35040 interval=0.25 mult = (file=../../../../../profiles/SFO_38.4407_-122.9591_35_270.csv)

New Loadshape.SFO_38.4407_-122.9591_15_225 npts= 35040 interval=0.25 mult = (file=../../../../../profiles/SFO_38.4407_-122.9591_15_225.csv)

New Loadshape.SFO_38.4407_-122.9591_35_135 npts= 35040 interval=0.25 mult = (file=../../../../../profiles/SFO_38.4407_-122.9591_35_135.csv)

New Loadshape.SFO_38.4407_-122.9591_45_135 npts= 35040 interval=0.25 mult = (file=../../../../../profiles/SFO_38.4407_-122.9591_45_135.csv)

New Loadshape.SFO_38.4407_-122.9591_45_225 npts= 35040 interval=0.25 mult = (file=../../../../../profiles/SFO_38.4407_-122.9591_45_225.csv)

New Loadshape.SFO_38.4407_-122.9591_45_180 npts= 35040 interval=0.25 mult = (file=../../../../../profiles/SFO_38.4407_-122.9591_45_180.csv)

New Loadshape.SFO_38.4407_-122.9591_45_90 npts= 35040 interval=0.25 mult = (file=../../../../../profiles/SFO_38.4407_-122.9591_45_90.csv)

New Loadshape.res_kw_118_pu npts= 35040 interval=0.25 mult = (file=../../../../../profiles/res_kw_118_pu.csv) qmult = (file=../../../../../profiles/res_kvar_118_pu.csv)

New Loadshape.res_kw_12336_pu npts= 35040 interval=0.25 mult = (file=../../../../../profiles/res_kw_12336_pu.csv) qmult = (file=../../../../../profiles/res_kvar_12336_pu.csv)

New Loadshape.res_kw_193_pu npts= 35040 interval=0.25 mult = (file=../../../../../profiles/res_kw_193_pu.csv) qmult = (file=../../../../../profiles/res_kvar_193_pu.csv)

New Loadshape.res_kw_13274_pu npts= 35040 interval=0.25 mult = (file=../../../../../profiles/res_kw_13274_pu.csv) qmult = (file=../../../../../profiles/res_kvar_13274_pu.csv)

New Loadshape.res_kw_7227_pu npts= 35040 interval=0.25 mult = (file=../../../../../profiles/res_kw_7227_pu.csv) qmult = (file=../../../../../profiles/res_kvar_7227_pu.csv)

New Loadshape.res_kw_12175_pu npts= 35040 interval=0.25 mult = (file=../../../../../profiles/res_kw_12175_pu.csv) qmult = (file=../../../../../profiles/res_kvar_12175_pu.csv)

New Loadshape.res_kw_11587_pu npts= 35040 interval=0.25 mult = (file=../../../../../profiles/res_kw_11587_pu.csv) qmult = (file=../../../../../profiles/res_kvar_11587_pu.csv)

New Loadshape.res_kw_9240_pu npts= 35040 interval=0.25 mult = (file=../../../../../profiles/res_kw_9240_pu.csv) qmult = (file=../../../../../profiles/res_kvar_9240_pu.csv)

New Loadshape.res_kw_9426_pu npts= 35040 interval=0.25 mult = (file=../../../../../profiles/res_kw_9426_pu.csv) qmult = (file=../../../../../profiles/res_kvar_9426_pu.csv)

New Loadshape.res_kw_7820_pu npts= 35040 interval=0.25 mult = (file=../../../../../profiles/res_kw_7820_pu.csv) qmult = (file=../../../../../profiles/res_kvar_7820_pu.csv)

New Loadshape.res_kw_3224_pu npts= 35040 interval=0.25 mult = (file=../../../../../profiles/res_kw_3224_pu.csv) qmult = (file=../../../../../profiles/res_kvar_3224_pu.csv)

New Loadshape.res_kw_9004_pu npts= 35040 interval=0.25 mult = (file=../../../../../profiles/res_kw_9004_pu.csv) qmult = (file=../../../../../profiles/res_kvar_9004_pu.csv)

New Loadshape.res_kw_14308_pu npts= 35040 interval=0.25 mult = (file=../../../../../profiles/res_kw_14308_pu.csv) qmult = (file=../../../../../profiles/res_kvar_14308_pu.csv)

New Loadshape.res_kw_4453_pu npts= 35040 interval=0.25 mult = (file=../../../../../profiles/res_kw_4453_pu.csv) qmult = (file=../../../../../profiles/res_kvar_4453_pu.csv)

New Loadshape.res_kw_11756_pu npts= 35040 interval=0.25 mult = (file=../../../../../profiles/res_kw_11756_pu.csv) qmult = (file=../../../../../profiles/res_kvar_11756_pu.csv)

New Loadshape.res_kw_1463_pu npts= 35040 interval=0.25 mult = (file=../../../../../profiles/res_kw_1463_pu.csv) qmult = (file=../../../../../profiles/res_kvar_1463_pu.csv)

New Loadshape.res_kw_705_pu npts= 35040 interval=0.25 mult = (file=../../../../../profiles/res_kw_705_pu.csv) qmult = (file=../../../../../profiles/res_kvar_705_pu.csv)

New Loadshape.res_kw_11369_pu npts= 35040 interval=0.25 mult = (file=../../../../../profiles/res_kw_11369_pu.csv) qmult = (file=../../../../../profiles/res_kvar_11369_pu.csv)

New Loadshape.res_kw_10457_pu npts= 35040 interval=0.25 mult = (file=../../../../../profiles/res_kw_10457_pu.csv) qmult = (file=../../../../../profiles/res_kvar_10457_pu.csv)

New Loadshape.res_kw_12166_pu npts= 35040 interval=0.25 mult = (file=../../../../../profiles/res_kw_12166_pu.csv) qmult = (file=../../../../../profiles/res_kvar_12166_pu.csv)

New Loadshape.res_kw_4760_pu npts= 35040 interval=0.25 mult = (file=../../../../../profiles/res_kw_4760_pu.csv) qmult = (file=../../../../../profiles/res_kvar_4760_pu.csv)

New Loadshape.res_kw_9421_pu npts= 35040 interval=0.25 mult = (file=../../../../../profiles/res_kw_9421_pu.csv) qmult = (file=../../../../../profiles/res_kvar_9421_pu.csv)

New Loadshape.res_kw_11409_pu npts= 35040 interval=0.25 mult = (file=../../../../../profiles/res_kw_11409_pu.csv) qmult = (file=../../../../../profiles/res_kvar_11409_pu.csv)

New Loadshape.res_kw_1927_pu npts= 35040 interval=0.25 mult = (file=../../../../../profiles/res_kw_1927_pu.csv) qmult = (file=../../../../../profiles/res_kvar_1927_pu.csv)

New Loadshape.res_kw_761_pu npts= 35040 interval=0.25 mult = (file=../../../../../profiles/res_kw_761_pu.csv) qmult = (file=../../../../../profiles/res_kvar_761_pu.csv)

New Loadshape.res_kw_459_pu npts= 35040 interval=0.25 mult = (file=../../../../../profiles/res_kw_459_pu.csv) qmult = (file=../../../../../profiles/res_kvar_459_pu.csv)

New Loadshape.res_kw_13798_pu npts= 35040 interval=0.25 mult = (file=../../../../../profiles/res_kw_13798_pu.csv) qmult = (file=../../../../../profiles/res_kvar_13798_pu.csv)

New Loadshape.res_kw_2019_pu npts= 35040 interval=0.25 mult = (file=../../../../../profiles/res_kw_2019_pu.csv) qmult = (file=../../../../../profiles/res_kvar_2019_pu.csv)

New Loadshape.res_kw_13863_pu npts= 35040 interval=0.25 mult = (file=../../../../../profiles/res_kw_13863_pu.csv) qmult = (file=../../../../../profiles/res_kvar_13863_pu.csv)

New Loadshape.res_kw_11345_pu npts= 35040 interval=0.25 mult = (file=../../../../../profiles/res_kw_11345_pu.csv) qmult = (file=../../../../../profiles/res_kvar_11345_pu.csv)

New Loadshape.res_kw_2441_pu npts= 35040 interval=0.25 mult = (file=../../../../../profiles/res_kw_2441_pu.csv) qmult = (file=../../../../../profiles/res_kvar_2441_pu.csv)

New Loadshape.res_kw_8876_pu npts= 35040 interval=0.25 mult = (file=../../../../../profiles/res_kw_8876_pu.csv) qmult = (file=../../../../../profiles/res_kvar_8876_pu.csv)

New Loadshape.res_kw_7051_pu npts= 35040 interval=0.25 mult = (file=../../../../../profiles/res_kw_7051_pu.csv) qmult = (file=../../../../../profiles/res_kvar_7051_pu.csv)

New Loadshape.res_kw_2030_pu npts= 35040 interval=0.25 mult = (file=../../../../../profiles/res_kw_2030_pu.csv) qmult = (file=../../../../../profiles/res_kvar_2030_pu.csv)

New Loadshape.res_kw_11018_pu npts= 35040 interval=0.25 mult = (file=../../../../../profiles/res_kw_11018_pu.csv) qmult = (file=../../../../../profiles/res_kvar_11018_pu.csv)

New Loadshape.res_kw_2215_pu npts= 35040 interval=0.25 mult = (file=../../../../../profiles/res_kw_2215_pu.csv) qmult = (file=../../../../../profiles/res_kvar_2215_pu.csv)

New Loadshape.res_kw_11723_pu npts= 35040 interval=0.25 mult = (file=../../../../../profiles/res_kw_11723_pu.csv) qmult = (file=../../../../../profiles/res_kvar_11723_pu.csv)

New Loadshape.res_kw_14265_pu npts= 35040 interval=0.25 mult = (file=../../../../../profiles/res_kw_14265_pu.csv) qmult = (file=../../../../../profiles/res_kvar_14265_pu.csv)

New Loadshape.res_kw_10071_pu npts= 35040 interval=0.25 mult = (file=../../../../../profiles/res_kw_10071_pu.csv) qmult = (file=../../../../../profiles/res_kvar_10071_pu.csv)

New Loadshape.res_kw_12787_pu npts= 35040 interval=0.25 mult = (file=../../../../../profiles/res_kw_12787_pu.csv) qmult = (file=../../../../../profiles/res_kvar_12787_pu.csv)

New Loadshape.res_kw_12297_pu npts= 35040 interval=0.25 mult = (file=../../../../../profiles/res_kw_12297_pu.csv) qmult = (file=../../../../../profiles/res_kvar_12297_pu.csv)

New Loadshape.res_kw_7613_pu npts= 35040 interval=0.25 mult = (file=../../../../../profiles/res_kw_7613_pu.csv) qmult = (file=../../../../../profiles/res_kvar_7613_pu.csv)

New Loadshape.res_kw_11932_pu npts= 35040 interval=0.25 mult = (file=../../../../../profiles/res_kw_11932_pu.csv) qmult = (file=../../../../../profiles/res_kvar_11932_pu.csv)

New Loadshape.res_kw_3803_pu npts= 35040 interval=0.25 mult = (file=../../../../../profiles/res_kw_3803_pu.csv) qmult = (file=../../../../../profiles/res_kvar_3803_pu.csv)

New Loadshape.res_kw_14441_pu npts= 35040 interval=0.25 mult = (file=../../../../../profiles/res_kw_14441_pu.csv) qmult = (file=../../../../../profiles/res_kvar_14441_pu.csv)

New Loadshape.res_kw_10487_pu npts= 35040 interval=0.25 mult = (file=../../../../../profiles/res_kw_10487_pu.csv) qmult = (file=../../../../../profiles/res_kvar_10487_pu.csv)

New Loadshape.res_kw_13230_pu npts= 35040 interval=0.25 mult = (file=../../../../../profiles/res_kw_13230_pu.csv) qmult = (file=../../../../../profiles/res_kvar_13230_pu.csv)

New Loadshape.res_kw_5178_pu npts= 35040 interval=0.25 mult = (file=../../../../../profiles/res_kw_5178_pu.csv) qmult = (file=../../../../../profiles/res_kvar_5178_pu.csv)

New Loadshape.res_kw_4584_pu npts= 35040 interval=0.25 mult = (file=../../../../../profiles/res_kw_4584_pu.csv) qmult = (file=../../../../../profiles/res_kvar_4584_pu.csv)

New Loadshape.res_kw_10572_pu npts= 35040 interval=0.25 mult = (file=../../../../../profiles/res_kw_10572_pu.csv) qmult = (file=../../../../../profiles/res_kvar_10572_pu.csv)

New Loadshape.res_kw_13840_pu npts= 35040 interval=0.25 mult = (file=../../../../../profiles/res_kw_13840_pu.csv) qmult = (file=../../../../../profiles/res_kvar_13840_pu.csv)

New Loadshape.res_kw_1592_pu npts= 35040 interval=0.25 mult = (file=../../../../../profiles/res_kw_1592_pu.csv) qmult = (file=../../../../../profiles/res_kvar_1592_pu.csv)

New Loadshape.res_kw_9710_pu npts= 35040 interval=0.25 mult = (file=../../../../../profiles/res_kw_9710_pu.csv) qmult = (file=../../../../../profiles/res_kvar_9710_pu.csv)

New Loadshape.res_kw_9760_pu npts= 35040 interval=0.25 mult = (file=../../../../../profiles/res_kw_9760_pu.csv) qmult = (file=../../../../../profiles/res_kvar_9760_pu.csv)

New Loadshape.res_kw_3108_pu npts= 35040 interval=0.25 mult = (file=../../../../../profiles/res_kw_3108_pu.csv) qmult = (file=../../../../../profiles/res_kvar_3108_pu.csv)

New Loadshape.res_kw_11346_pu npts= 35040 interval=0.25 mult = (file=../../../../../profiles/res_kw_11346_pu.csv) qmult = (file=../../../../../profiles/res_kvar_11346_pu.csv)

New Loadshape.res_kw_13148_pu npts= 35040 interval=0.25 mult = (file=../../../../../profiles/res_kw_13148_pu.csv) qmult = (file=../../../../../profiles/res_kvar_13148_pu.csv)

New Loadshape.res_kw_2675_pu npts= 35040 interval=0.25 mult = (file=../../../../../profiles/res_kw_2675_pu.csv) qmult = (file=../../../../../profiles/res_kvar_2675_pu.csv)

New Loadshape.res_kw_9431_pu npts= 35040 interval=0.25 mult = (file=../../../../../profiles/res_kw_9431_pu.csv) qmult = (file=../../../../../profiles/res_kvar_9431_pu.csv)

New Loadshape.res_kw_13818_pu npts= 35040 interval=0.25 mult = (file=../../../../../profiles/res_kw_13818_pu.csv) qmult = (file=../../../../../profiles/res_kvar_13818_pu.csv)

New Loadshape.res_kw_2179_pu npts= 35040 interval=0.25 mult = (file=../../../../../profiles/res_kw_2179_pu.csv) qmult = (file=../../../../../profiles/res_kvar_2179_pu.csv)

New Loadshape.res_kw_2978_pu npts= 35040 interval=0.25 mult = (file=../../../../../profiles/res_kw_2978_pu.csv) qmult = (file=../../../../../profiles/res_kvar_2978_pu.csv)

New Loadshape.res_kw_11663_pu npts= 35040 interval=0.25 mult = (file=../../../../../profiles/res_kw_11663_pu.csv) qmult = (file=../../../../../profiles/res_kvar_11663_pu.csv)

New Loadshape.res_kw_14386_pu npts= 35040 interval=0.25 mult = (file=../../../../../profiles/res_kw_14386_pu.csv) qmult = (file=../../../../../profiles/res_kvar_14386_pu.csv)

New Loadshape.res_kw_14952_pu npts= 35040 interval=0.25 mult = (file=../../../../../profiles/res_kw_14952_pu.csv) qmult = (file=../../../../../profiles/res_kvar_14952_pu.csv)

New Loadshape.res_kw_5464_pu npts= 35040 interval=0.25 mult = (file=../../../../../profiles/res_kw_5464_pu.csv) qmult = (file=../../../../../profiles/res_kvar_5464_pu.csv)

New Loadshape.res_kw_11633_pu npts= 35040 interval=0.25 mult = (file=../../../../../profiles/res_kw_11633_pu.csv) qmult = (file=../../../../../profiles/res_kvar_11633_pu.csv)

New Loadshape.res_kw_6119_pu npts= 35040 interval=0.25 mult = (file=../../../../../profiles/res_kw_6119_pu.csv) qmult = (file=../../../../../profiles/res_kvar_6119_pu.csv)

New Loadshape.res_kw_8260_pu npts= 35040 interval=0.25 mult = (file=../../../../../profiles/res_kw_8260_pu.csv) qmult = (file=../../../../../profiles/res_kvar_8260_pu.csv)

New Loadshape.res_kw_8338_pu npts= 35040 interval=0.25 mult = (file=../../../../../profiles/res_kw_8338_pu.csv) qmult = (file=../../../../../profiles/res_kvar_8338_pu.csv)

New Loadshape.res_kw_8028_pu npts= 35040 interval=0.25 mult = (file=../../../../../profiles/res_kw_8028_pu.csv) qmult = (file=../../../../../profiles/res_kvar_8028_pu.csv)

New Loadshape.res_kw_2114_pu npts= 35040 interval=0.25 mult = (file=../../../../../profiles/res_kw_2114_pu.csv) qmult = (file=../../../../../profiles/res_kvar_2114_pu.csv)

New Loadshape.res_kw_12358_pu npts= 35040 interval=0.25 mult = (file=../../../../../profiles/res_kw_12358_pu.csv) qmult = (file=../../../../../profiles/res_kvar_12358_pu.csv)

New Loadshape.res_kw_982_pu npts= 35040 interval=0.25 mult = (file=../../../../../profiles/res_kw_982_pu.csv) qmult = (file=../../../../../profiles/res_kvar_982_pu.csv)

New Loadshape.res_kw_8400_pu npts= 35040 interval=0.25 mult = (file=../../../../../profiles/res_kw_8400_pu.csv) qmult = (file=../../../../../profiles/res_kvar_8400_pu.csv)

New Loadshape.res_kw_8743_pu npts= 35040 interval=0.25 mult = (file=../../../../../profiles/res_kw_8743_pu.csv) qmult = (file=../../../../../profiles/res_kvar_8743_pu.csv)

New Loadshape.res_kw_3356_pu npts= 35040 interval=0.25 mult = (file=../../../../../profiles/res_kw_3356_pu.csv) qmult = (file=../../../../../profiles/res_kvar_3356_pu.csv)

New Loadshape.res_kw_5072_pu npts= 35040 interval=0.25 mult = (file=../../../../../profiles/res_kw_5072_pu.csv) qmult = (file=../../../../../profiles/res_kvar_5072_pu.csv)

New Loadshape.res_kw_10803_pu npts= 35040 interval=0.25 mult = (file=../../../../../profiles/res_kw_10803_pu.csv) qmult = (file=../../../../../profiles/res_kvar_10803_pu.csv)

New Loadshape.res_kw_8986_pu npts= 35040 interval=0.25 mult = (file=../../../../../profiles/res_kw_8986_pu.csv) qmult = (file=../../../../../profiles/res_kvar_8986_pu.csv)

New Loadshape.res_kw_15225_pu npts= 35040 interval=0.25 mult = (file=../../../../../profiles/res_kw_15225_pu.csv) qmult = (file=../../../../../profiles/res_kvar_15225_pu.csv)

New Loadshape.res_kw_10152_pu npts= 35040 interval=0.25 mult = (file=../../../../../profiles/res_kw_10152_pu.csv) qmult = (file=../../../../../profiles/res_kvar_10152_pu.csv)

New Loadshape.res_kw_11630_pu npts= 35040 interval=0.25 mult = (file=../../../../../profiles/res_kw_11630_pu.csv) qmult = (file=../../../../../profiles/res_kvar_11630_pu.csv)

New Loadshape.res_kw_11147_pu npts= 35040 interval=0.25 mult = (file=../../../../../profiles/res_kw_11147_pu.csv) qmult = (file=../../../../../profiles/res_kvar_11147_pu.csv)

New Loadshape.res_kw_10201_pu npts= 35040 interval=0.25 mult = (file=../../../../../profiles/res_kw_10201_pu.csv) qmult = (file=../../../../../profiles/res_kvar_10201_pu.csv)

New Loadshape.res_kw_2085_pu npts= 35040 interval=0.25 mult = (file=../../../../../profiles/res_kw_2085_pu.csv) qmult = (file=../../../../../profiles/res_kvar_2085_pu.csv)

New Loadshape.res_kw_3968_pu npts= 35040 interval=0.25 mult = (file=../../../../../profiles/res_kw_3968_pu.csv) qmult = (file=../../../../../profiles/res_kvar_3968_pu.csv)

New Loadshape.res_kw_1770_pu npts= 35040 interval=0.25 mult = (file=../../../../../profiles/res_kw_1770_pu.csv) qmult = (file=../../../../../profiles/res_kvar_1770_pu.csv)

New Loadshape.res_kw_12955_pu npts= 35040 interval=0.25 mult = (file=../../../../../profiles/res_kw_12955_pu.csv) qmult = (file=../../../../../profiles/res_kvar_12955_pu.csv)

New Loadshape.res_kw_3797_pu npts= 35040 interval=0.25 mult = (file=../../../../../profiles/res_kw_3797_pu.csv) qmult = (file=../../../../../profiles/res_kvar_3797_pu.csv)

New Loadshape.res_kw_7385_pu npts= 35040 interval=0.25 mult = (file=../../../../../profiles/res_kw_7385_pu.csv) qmult = (file=../../../../../profiles/res_kvar_7385_pu.csv)

New Loadshape.res_kw_8742_pu npts= 35040 interval=0.25 mult = (file=../../../../../profiles/res_kw_8742_pu.csv) qmult = (file=../../../../../profiles/res_kvar_8742_pu.csv)

New Loadshape.res_kw_5668_pu npts= 35040 interval=0.25 mult = (file=../../../../../profiles/res_kw_5668_pu.csv) qmult = (file=../../../../../profiles/res_kvar_5668_pu.csv)

New Loadshape.res_kw_7894_pu npts= 35040 interval=0.25 mult = (file=../../../../../profiles/res_kw_7894_pu.csv) qmult = (file=../../../../../profiles/res_kvar_7894_pu.csv)

New Loadshape.res_kw_2686_pu npts= 35040 interval=0.25 mult = (file=../../../../../profiles/res_kw_2686_pu.csv) qmult = (file=../../../../../profiles/res_kvar_2686_pu.csv)

New Loadshape.res_kw_14271_pu npts= 35040 interval=0.25 mult = (file=../../../../../profiles/res_kw_14271_pu.csv) qmult = (file=../../../../../profiles/res_kvar_14271_pu.csv)

New Loadshape.res_kw_6160_pu npts= 35040 interval=0.25 mult = (file=../../../../../profiles/res_kw_6160_pu.csv) qmult = (file=../../../../../profiles/res_kvar_6160_pu.csv)

New Loadshape.res_kw_9813_pu npts= 35040 interval=0.25 mult = (file=../../../../../profiles/res_kw_9813_pu.csv) qmult = (file=../../../../../profiles/res_kvar_9813_pu.csv)

New Loadshape.res_kw_8858_pu npts= 35040 interval=0.25 mult = (file=../../../../../profiles/res_kw_8858_pu.csv) qmult = (file=../../../../../profiles/res_kvar_8858_pu.csv)

New Loadshape.res_kw_8764_pu npts= 35040 interval=0.25 mult = (file=../../../../../profiles/res_kw_8764_pu.csv) qmult = (file=../../../../../profiles/res_kvar_8764_pu.csv)

New Loadshape.res_kw_7568_pu npts= 35040 interval=0.25 mult = (file=../../../../../profiles/res_kw_7568_pu.csv) qmult = (file=../../../../../profiles/res_kvar_7568_pu.csv)

New Loadshape.res_kw_7144_pu npts= 35040 interval=0.25 mult = (file=../../../../../profiles/res_kw_7144_pu.csv) qmult = (file=../../../../../profiles/res_kvar_7144_pu.csv)

New Loadshape.res_kw_13794_pu npts= 35040 interval=0.25 mult = (file=../../../../../profiles/res_kw_13794_pu.csv) qmult = (file=../../../../../profiles/res_kvar_13794_pu.csv)

New Loadshape.res_kw_7412_pu npts= 35040 interval=0.25 mult = (file=../../../../../profiles/res_kw_7412_pu.csv) qmult = (file=../../../../../profiles/res_kvar_7412_pu.csv)

New Loadshape.res_kw_370_pu npts= 35040 interval=0.25 mult = (file=../../../../../profiles/res_kw_370_pu.csv) qmult = (file=../../../../../profiles/res_kvar_370_pu.csv)

New Loadshape.res_kw_10197_pu npts= 35040 interval=0.25 mult = (file=../../../../../profiles/res_kw_10197_pu.csv) qmult = (file=../../../../../profiles/res_kvar_10197_pu.csv)

New Loadshape.res_kw_1124_pu npts= 35040 interval=0.25 mult = (file=../../../../../profiles/res_kw_1124_pu.csv) qmult = (file=../../../../../profiles/res_kvar_1124_pu.csv)

New Loadshape.res_kw_14016_pu npts= 35040 interval=0.25 mult = (file=../../../../../profiles/res_kw_14016_pu.csv) qmult = (file=../../../../../profiles/res_kvar_14016_pu.csv)

New Loadshape.res_kw_15042_pu npts= 35040 interval=0.25 mult = (file=../../../../../profiles/res_kw_15042_pu.csv) qmult = (file=../../../../../profiles/res_kvar_15042_pu.csv)

New Loadshape.res_kw_11088_pu npts= 35040 interval=0.25 mult = (file=../../../../../profiles/res_kw_11088_pu.csv) qmult = (file=../../../../../profiles/res_kvar_11088_pu.csv)

New Loadshape.res_kw_9243_pu npts= 35040 interval=0.25 mult = (file=../../../../../profiles/res_kw_9243_pu.csv) qmult = (file=../../../../../profiles/res_kvar_9243_pu.csv)

New Loadshape.res_kw_7285_pu npts= 35040 interval=0.25 mult = (file=../../../../../profiles/res_kw_7285_pu.csv) qmult = (file=../../../../../profiles/res_kvar_7285_pu.csv)

New Loadshape.res_kw_11173_pu npts= 35040 interval=0.25 mult = (file=../../../../../profiles/res_kw_11173_pu.csv) qmult = (file=../../../../../profiles/res_kvar_11173_pu.csv)

New Loadshape.res_kw_119_pu npts= 35040 interval=0.25 mult = (file=../../../../../profiles/res_kw_119_pu.csv) qmult = (file=../../../../../profiles/res_kvar_119_pu.csv)

New Loadshape.res_kw_8820_pu npts= 35040 interval=0.25 mult = (file=../../../../../profiles/res_kw_8820_pu.csv) qmult = (file=../../../../../profiles/res_kvar_8820_pu.csv)

New Loadshape.res_kw_10695_pu npts= 35040 interval=0.25 mult = (file=../../../../../profiles/res_kw_10695_pu.csv) qmult = (file=../../../../../profiles/res_kvar_10695_pu.csv)

New Loadshape.res_kw_9327_pu npts= 35040 interval=0.25 mult = (file=../../../../../profiles/res_kw_9327_pu.csv) qmult = (file=../../../../../profiles/res_kvar_9327_pu.csv)

New Loadshape.res_kw_836_pu npts= 35040 interval=0.25 mult = (file=../../../../../profiles/res_kw_836_pu.csv) qmult = (file=../../../../../profiles/res_kvar_836_pu.csv)

New Loadshape.res_kw_11149_pu npts= 35040 interval=0.25 mult = (file=../../../../../profiles/res_kw_11149_pu.csv) qmult = (file=../../../../../profiles/res_kvar_11149_pu.csv)

New Loadshape.res_kw_12843_pu npts= 35040 interval=0.25 mult = (file=../../../../../profiles/res_kw_12843_pu.csv) qmult = (file=../../../../../profiles/res_kvar_12843_pu.csv)

New Loadshape.res_kw_6320_pu npts= 35040 interval=0.25 mult = (file=../../../../../profiles/res_kw_6320_pu.csv) qmult = (file=../../../../../profiles/res_kvar_6320_pu.csv)

New Loadshape.res_kw_14077_pu npts= 35040 interval=0.25 mult = (file=../../../../../profiles/res_kw_14077_pu.csv) qmult = (file=../../../../../profiles/res_kvar_14077_pu.csv)

New Loadshape.res_kw_15158_pu npts= 35040 interval=0.25 mult = (file=../../../../../profiles/res_kw_15158_pu.csv) qmult = (file=../../../../../profiles/res_kvar_15158_pu.csv)

New Loadshape.res_kw_2142_pu npts= 35040 interval=0.25 mult = (file=../../../../../profiles/res_kw_2142_pu.csv) qmult = (file=../../../../../profiles/res_kvar_2142_pu.csv)

New Loadshape.res_kw_14038_pu npts= 35040 interval=0.25 mult = (file=../../../../../profiles/res_kw_14038_pu.csv) qmult = (file=../../../../../profiles/res_kvar_14038_pu.csv)

New Loadshape.res_kw_5155_pu npts= 35040 interval=0.25 mult = (file=../../../../../profiles/res_kw_5155_pu.csv) qmult = (file=../../../../../profiles/res_kvar_5155_pu.csv)

New Loadshape.res_kw_2936_pu npts= 35040 interval=0.25 mult = (file=../../../../../profiles/res_kw_2936_pu.csv) qmult = (file=../../../../../profiles/res_kvar_2936_pu.csv)

New Loadshape.res_kw_11990_pu npts= 35040 interval=0.25 mult = (file=../../../../../profiles/res_kw_11990_pu.csv) qmult = (file=../../../../../profiles/res_kvar_11990_pu.csv)

New Loadshape.res_kw_10209_pu npts= 35040 interval=0.25 mult = (file=../../../../../profiles/res_kw_10209_pu.csv) qmult = (file=../../../../../profiles/res_kvar_10209_pu.csv)

New Loadshape.res_kw_3186_pu npts= 35040 interval=0.25 mult = (file=../../../../../profiles/res_kw_3186_pu.csv) qmult = (file=../../../../../profiles/res_kvar_3186_pu.csv)

New Loadshape.res_kw_5167_pu npts= 35040 interval=0.25 mult = (file=../../../../../profiles/res_kw_5167_pu.csv) qmult = (file=../../../../../profiles/res_kvar_5167_pu.csv)

New Loadshape.res_kw_3629_pu npts= 35040 interval=0.25 mult = (file=../../../../../profiles/res_kw_3629_pu.csv) qmult = (file=../../../../../profiles/res_kvar_3629_pu.csv)

New Loadshape.res_kw_4295_pu npts= 35040 interval=0.25 mult = (file=../../../../../profiles/res_kw_4295_pu.csv) qmult = (file=../../../../../profiles/res_kvar_4295_pu.csv)

New Loadshape.res_kw_13614_pu npts= 35040 interval=0.25 mult = (file=../../../../../profiles/res_kw_13614_pu.csv) qmult = (file=../../../../../profiles/res_kvar_13614_pu.csv)

New Loadshape.res_kw_4577_pu npts= 35040 interval=0.25 mult = (file=../../../../../profiles/res_kw_4577_pu.csv) qmult = (file=../../../../../profiles/res_kvar_4577_pu.csv)

New Loadshape.res_kw_5192_pu npts= 35040 interval=0.25 mult = (file=../../../../../profiles/res_kw_5192_pu.csv) qmult = (file=../../../../../profiles/res_kvar_5192_pu.csv)

New Loadshape.res_kw_4401_pu npts= 35040 interval=0.25 mult = (file=../../../../../profiles/res_kw_4401_pu.csv) qmult = (file=../../../../../profiles/res_kvar_4401_pu.csv)

New Loadshape.res_kw_4978_pu npts= 35040 interval=0.25 mult = (file=../../../../../profiles/res_kw_4978_pu.csv) qmult = (file=../../../../../profiles/res_kvar_4978_pu.csv)

New Loadshape.res_kw_8127_pu npts= 35040 interval=0.25 mult = (file=../../../../../profiles/res_kw_8127_pu.csv) qmult = (file=../../../../../profiles/res_kvar_8127_pu.csv)

New Loadshape.res_kw_1109_pu npts= 35040 interval=0.25 mult = (file=../../../../../profiles/res_kw_1109_pu.csv) qmult = (file=../../../../../profiles/res_kvar_1109_pu.csv)

New Loadshape.res_kw_3815_pu npts= 35040 interval=0.25 mult = (file=../../../../../profiles/res_kw_3815_pu.csv) qmult = (file=../../../../../profiles/res_kvar_3815_pu.csv)

New Loadshape.res_kw_1325_pu npts= 35040 interval=0.25 mult = (file=../../../../../profiles/res_kw_1325_pu.csv) qmult = (file=../../../../../profiles/res_kvar_1325_pu.csv)

New Loadshape.res_kw_5323_pu npts= 35040 interval=0.25 mult = (file=../../../../../profiles/res_kw_5323_pu.csv) qmult = (file=../../../../../profiles/res_kvar_5323_pu.csv)

New Loadshape.res_kw_13165_pu npts= 35040 interval=0.25 mult = (file=../../../../../profiles/res_kw_13165_pu.csv) qmult = (file=../../../../../profiles/res_kvar_13165_pu.csv)

New Loadshape.res_kw_9103_pu npts= 35040 interval=0.25 mult = (file=../../../../../profiles/res_kw_9103_pu.csv) qmult = (file=../../../../../profiles/res_kvar_9103_pu.csv)

New Loadshape.res_kw_686_pu npts= 35040 interval=0.25 mult = (file=../../../../../profiles/res_kw_686_pu.csv) qmult = (file=../../../../../profiles/res_kvar_686_pu.csv)

New Loadshape.res_kw_5110_pu npts= 35040 interval=0.25 mult = (file=../../../../../profiles/res_kw_5110_pu.csv) qmult = (file=../../../../../profiles/res_kvar_5110_pu.csv)

New Loadshape.res_kw_588_pu npts= 35040 interval=0.25 mult = (file=../../../../../profiles/res_kw_588_pu.csv) qmult = (file=../../../../../profiles/res_kvar_588_pu.csv)

New Loadshape.res_kw_13679_pu npts= 35040 interval=0.25 mult = (file=../../../../../profiles/res_kw_13679_pu.csv) qmult = (file=../../../../../profiles/res_kvar_13679_pu.csv)

New Loadshape.res_kw_11613_pu npts= 35040 interval=0.25 mult = (file=../../../../../profiles/res_kw_11613_pu.csv) qmult = (file=../../../../../profiles/res_kvar_11613_pu.csv)

New Loadshape.res_kw_11288_pu npts= 35040 interval=0.25 mult = (file=../../../../../profiles/res_kw_11288_pu.csv) qmult = (file=../../../../../profiles/res_kvar_11288_pu.csv)

New Loadshape.res_kw_5354_pu npts= 35040 interval=0.25 mult = (file=../../../../../profiles/res_kw_5354_pu.csv) qmult = (file=../../../../../profiles/res_kvar_5354_pu.csv)

New Loadshape.res_kw_10775_pu npts= 35040 interval=0.25 mult = (file=../../../../../profiles/res_kw_10775_pu.csv) qmult = (file=../../../../../profiles/res_kvar_10775_pu.csv)

New Loadshape.res_kw_6051_pu npts= 35040 interval=0.25 mult = (file=../../../../../profiles/res_kw_6051_pu.csv) qmult = (file=../../../../../profiles/res_kvar_6051_pu.csv)

New Loadshape.res_kw_3948_pu npts= 35040 interval=0.25 mult = (file=../../../../../profiles/res_kw_3948_pu.csv) qmult = (file=../../../../../profiles/res_kvar_3948_pu.csv)

New Loadshape.res_kw_7718_pu npts= 35040 interval=0.25 mult = (file=../../../../../profiles/res_kw_7718_pu.csv) qmult = (file=../../../../../profiles/res_kvar_7718_pu.csv)
