clear
new circuit.local_vwatt_b
redirect shared.dss

New PVSystem.der bus1=low kV=0.4 irradiance=1.0 pmpp=6000 kVA=6682 kvarMax=2940 kvarMaxAbs=2940
New InvControl.der mode=VOLTWATT voltage_curvex_ref=rated voltwatt_curve=voltwatt1547b deltaP_factor=0.2 // eventlog=yes

redirect postlude.dss


