clear
new circuit.local_optpf_a
redirect shared.dss

New PVSystem.der bus1=low kV=0.4 irradiance=1.0 pmpp=6000 kVA=6228 kvarMax=2940 kvarMaxAbs=1670 pf=-0.9634

redirect postlude.dss

