clear
new circuit.local_optpf_b
redirect shared.dss

New PVSystem.der bus1=low kV=0.4 irradiance=1.0 pmpp=6000 kVA=6593 pf=-0.92

redirect postlude.dss

