clear
new circuit.local_combo_a
redirect shared.dss

New PVSystem.der bus1=low kV=0.4 irradiance=1.0 pmpp=6000 kVA=6228 kvarMax=2940 kvarMaxAbs=1670
New InvControl.der combimode=VV_VW voltage_curvex_ref=rated vvc_curve1=voltvar1547a 
~ voltwatt_curve=voltwatt1547pv deltaQ_factor=0.4 deltaP_factor=0.2 VV_RefReactivePower=VARMAX_VARS // eventlog=yes

redirect postlude.dss


