clear
set defaultbasefrequency=60.0
new Circuit.source phases=3 bus1=sourcebus basekv=115.000 pu=1.05000 angle=0.00000 r0=0.00000 x0=0.00100 r1=0.00000 x1=0.00100
set earthmodel=carson

new WireData.1/0_3w_cs gmr=0.003480 radius=0.005055 rac=0.000604 rdc=0.000592 normamps=200.0 Runits=m Radunits=m gmrunits=m
new WireData.1/0_acsr gmr=0.001359 radius=0.005055 rac=0.000647 rdc=0.000634 normamps=260.0 Runits=m Radunits=m gmrunits=m
new WireData.4_wpal gmr=0.002134 radius=0.003175 rac=0.001528 rdc=0.001498 normamps=150.0 Runits=m Radunits=m gmrunits=m
new WireData.4_acsr gmr=0.001331 radius=0.003175 rac=0.001572 rdc=0.001542 normamps=150.0 Runits=m Radunits=m gmrunits=m
new WireData.4_dpx gmr=0.002134 radius=0.003175 rac=0.001522 rdc=0.001492 normamps=136.0 Runits=m Radunits=m gmrunits=m
new WireData.2/0_wpal gmr=0.001554 radius=0.005677 rac=0.000530 rdc=0.000520 normamps=300.0 Runits=m Radunits=m gmrunits=m
new WireData.397_acsr gmr=0.007315 radius=0.009436 rac=0.000160 rdc=0.000157 normamps=630.0 Runits=m Radunits=m gmrunits=m
new WireData.397_aac_treewire gmr=0.007315 radius=0.009436 rac=0.000176 rdc=0.000172 normamps=526.0 Runits=m Radunits=m gmrunits=m
new WireData.2_acsr gmr=0.001275 radius=0.004013 rac=0.001010 rdc=0.000990 normamps=200.0 Runits=m Radunits=m gmrunits=m
new WireData.2_wpal gmr=0.001275 radius=0.004013 rac=0.001050 rdc=0.001030 normamps=155.0 Runits=m Radunits=m gmrunits=m
new WireData.6_wpal gmr=0.001201 radius=0.002515 rac=0.002430 rdc=0.002382 normamps=115.0 Runits=m Radunits=m gmrunits=m
new WireData.4_tpx gmr=0.002134 radius=0.003175 rac=0.001522 rdc=0.001492 normamps=115.0 Runits=m Radunits=m gmrunits=m
new WireData.1/0_tpx gmr=0.003480 radius=0.005055 rac=0.000114 rdc=0.000112 normamps=205.0 Runits=m Radunits=m gmrunits=m
new WireData.4/0_tpx gmr=0.004806 radius=0.007150 rac=0.000302 rdc=0.000296 normamps=318.0 Runits=m Radunits=m gmrunits=m
new WireData.2/0_acsr gmr=0.001554 radius=0.005677 rac=0.000530 rdc=0.000520 normamps=300.0 Runits=m Radunits=m gmrunits=m

new CNData.1/0_al_15kv_1/3 gmr=0.003380 radius=0.004675 rac=0.000603 rdc=0.000591 normamps=0.0 Runits=m Radunits=m gmrunits=m
~ EpsR=2.30 Ins=0.004450 DiaIns=0.021100 DiaCable=0.027400
~ k=6 GmrStrand=0.000250 DiaStrand=0.000640 Rstrand=0.002550

new LineSpacing.3ph_h-4_acsr2_acsr2_acsr4_wpal_ABC nconds=4 nphases=3 units=m
~ x=[-0.6096,0.1524,0.6096,0.1524]
~ h=[9.7536,10.3632,9.7536,8.2296]
new LineSpacing.1ph-4_acsrxx1/0_tpx_A nconds=2 nphases=1 units=m
~ x=[-0.1524,0.1524]
~ h=[10.5156,8.2296]
new LineSpacing.1ph-x4_wpalx4_wpal_B nconds=2 nphases=1 units=m
~ x=[-0.1524,0.1524]
~ h=[10.5156,8.2296]
new LineSpacing.1ph-x4_wpalx1/0_tpx_B nconds=2 nphases=1 units=m
~ x=[-0.1524,0.1524]
~ h=[10.5156,8.2296]
new LineSpacing.3ph_h-4_wpal4_wpal4_wpal1/0_tpx_ABC nconds=4 nphases=3 units=m
~ x=[-0.6096,0.1524,0.6096,0.1524]
~ h=[9.7536,10.3632,9.7536,8.2296]
new LineSpacing.3ph_h-4_acsr4_acsr4_acsr4_wpal_ABC nconds=4 nphases=3 units=m
~ x=[-0.6096,0.1524,0.6096,0.1524]
~ h=[9.7536,10.3632,9.7536,8.2296]
new LineSpacing.3ph_h-2/0_acsr2/0_acsr2/0_acsr2_acsr_ABC nconds=4 nphases=3 units=m
~ x=[-0.6096,0.1524,0.6096,0.1524]
~ h=[9.7536,10.3632,9.7536,8.2296]
new LineSpacing.1ph-x4_wpalx2_acsr_B nconds=2 nphases=1 units=m
~ x=[-0.1524,0.1524]
~ h=[10.5156,8.2296]
new LineSpacing.1ph-xx6_wpal6_wpal_C nconds=2 nphases=1 units=m
~ x=[-0.1524,0.1524]
~ h=[10.5156,8.2296]
new LineSpacing.1ph-x4_acsrx4_wpal_B nconds=2 nphases=1 units=m
~ x=[-0.1524,0.1524]
~ h=[10.5156,8.2296]
new LineSpacing.1ph-xx4_wpal4_wpal_C nconds=2 nphases=1 units=m
~ x=[-0.1524,0.1524]
~ h=[10.5156,8.2296]
new LineSpacing.1ph-2_acsrxx4_wpal_A nconds=2 nphases=1 units=m
~ x=[-0.1524,0.1524]
~ h=[10.5156,8.2296]
new LineSpacing.1ph-x4_acsrx1/0_tpx_B nconds=2 nphases=1 units=m
~ x=[-0.1524,0.1524]
~ h=[10.5156,8.2296]
new LineSpacing.1ph-x2_acsrx1/0_tpx_B nconds=2 nphases=1 units=m
~ x=[-0.1524,0.1524]
~ h=[10.5156,8.2296]
new LineSpacing.1ph-x4_acsrx4_tpx_B nconds=2 nphases=1 units=m
~ x=[-0.1524,0.1524]
~ h=[10.5156,8.2296]
new LineSpacing.3ph_h-2_acsr2_acsr4_acsr4_acsr_ABC nconds=4 nphases=3 units=m
~ x=[-0.6096,0.1524,0.6096,0.1524]
~ h=[9.7536,10.3632,9.7536,8.2296]
new LineSpacing.3ph_h-397_acsr397_acsr397_acsr2/0_wpal_ABC nconds=4 nphases=3 units=m
~ x=[-0.6096,0.1524,0.6096,0.1524]
~ h=[9.7536,10.3632,9.7536,8.2296]
new LineSpacing.1ph-x4_acsrx1/0_3w_cs_B nconds=2 nphases=1 units=m
~ x=[-0.1524,0.1524]
~ h=[10.5156,8.2296]
new LineSpacing.1p_1/0_axnj_db_A nconds=1 nphases=1 units=m
~ x=[0.0000]
~ h=[-1.2200]
new LineSpacing.1p_1/0_axnj_db_B nconds=1 nphases=1 units=m
~ x=[0.0000]
~ h=[-1.2200]
new LineSpacing.1p_1/0_axnj_db_C nconds=1 nphases=1 units=m
~ x=[0.0000]
~ h=[-1.2200]
new LineSpacing.1ph-2_acsrxx4_acsr_A nconds=2 nphases=1 units=m
~ x=[-0.1524,0.1524]
~ h=[10.5156,8.2296]
new LineSpacing.1ph-xx4_acsr1/0_acsr_C nconds=2 nphases=1 units=m
~ x=[-0.1524,0.1524]
~ h=[10.5156,8.2296]
new LineSpacing.1ph-2_acsrxx2_acsr_A nconds=2 nphases=1 units=m
~ x=[-0.1524,0.1524]
~ h=[10.5156,8.2296]
new LineSpacing.1ph-2_acsrxx2_acsr_C nconds=2 nphases=1 units=m
~ x=[-0.1524,0.1524]
~ h=[10.5156,8.2296]
new LineSpacing.1ph-xx4_wpal4_acsr_C nconds=2 nphases=1 units=m
~ x=[-0.1524,0.1524]
~ h=[10.5156,8.2296]
new LineSpacing.3p_1/0_axnj_db_ABC nconds=3 nphases=3 units=m
~ x=[-0.1524,0.0000,0.1524]
~ h=[-1.2200,-1.2200,-1.2200]
new LineSpacing.1ph-4_acsrxx4_acsr_A nconds=2 nphases=1 units=m
~ x=[-0.1524,0.1524]
~ h=[10.5156,8.2296]
new LineSpacing.1ph-4_acsrxx4_acsr_C nconds=2 nphases=1 units=m
~ x=[-0.1524,0.1524]
~ h=[10.5156,8.2296]
new LineSpacing.1ph-2_acsrxx4/0_tpx_A nconds=2 nphases=1 units=m
~ x=[-0.1524,0.1524]
~ h=[10.5156,8.2296]
new LineSpacing.1ph-x4_acsrx4_dpx_B nconds=2 nphases=1 units=m
~ x=[-0.1524,0.1524]
~ h=[10.5156,8.2296]
new LineSpacing.1ph-xx4_acsr4_tpx_C nconds=2 nphases=1 units=m
~ x=[-0.1524,0.1524]
~ h=[10.5156,8.2296]
new LineSpacing.1ph-4_acsrxx6_wpal_A nconds=2 nphases=1 units=m
~ x=[-0.1524,0.1524]
~ h=[10.5156,8.2296]
new LineSpacing.1ph-x4_acsrx2_wpal_B nconds=2 nphases=1 units=m
~ x=[-0.1524,0.1524]
~ h=[10.5156,8.2296]
new LineSpacing.1ph-x4_wpalx4_acsr_B nconds=2 nphases=1 units=m
~ x=[-0.1524,0.1524]
~ h=[10.5156,8.2296]
new LineSpacing.1ph-xx4_acsr4_acsr_A nconds=2 nphases=1 units=m
~ x=[-0.1524,0.1524]
~ h=[10.5156,8.2296]
new LineSpacing.1ph-xx4_acsr4_acsr_B nconds=2 nphases=1 units=m
~ x=[-0.1524,0.1524]
~ h=[10.5156,8.2296]
new LineSpacing.1ph-xx4_acsr4_acsr_C nconds=2 nphases=1 units=m
~ x=[-0.1524,0.1524]
~ h=[10.5156,8.2296]
new LineSpacing.1ph-xx4_wpal1/0_tpx_C nconds=2 nphases=1 units=m
~ x=[-0.1524,0.1524]
~ h=[10.5156,8.2296]
new LineSpacing.2ph_h-2_acsrx2_acsr2_acsr_AC nconds=3 nphases=2 units=m
~ x=[-0.6096,0.6096,0.1524]
~ h=[9.7536,9.7536,8.2296]
new LineSpacing.3ph_h-4_wpal4_wpal4_wpal4_wpal_ABC nconds=4 nphases=3 units=m
~ x=[-0.6096,0.1524,0.6096,0.1524]
~ h=[9.7536,10.3632,9.7536,8.2296]
new LineSpacing.1ph-2_acsrxx1/0_tpx_A nconds=2 nphases=1 units=m
~ x=[-0.1524,0.1524]
~ h=[10.5156,8.2296]
new LineSpacing.1ph-x2_acsrx1/0_3w_cs_B nconds=2 nphases=1 units=m
~ x=[-0.1524,0.1524]
~ h=[10.5156,8.2296]
new LineSpacing.3ph_h-2/0_acsr2/0_acsr2/0_acsr4_acsr_ABC nconds=4 nphases=3 units=m
~ x=[-0.6096,0.1524,0.6096,0.1524]
~ h=[9.7536,10.3632,9.7536,8.2296]
new LineSpacing.1ph-4_wpalxx2_wpal_A nconds=2 nphases=1 units=m
~ x=[-0.1524,0.1524]
~ h=[10.5156,8.2296]
new LineSpacing.1ph-x2_acsrx4_tpx_B nconds=2 nphases=1 units=m
~ x=[-0.1524,0.1524]
~ h=[10.5156,8.2296]
new LineSpacing.3ph-69kv_397_treewire_ABC nconds=4 nphases=3 units=m
~ x=[0.6096,-0.6096,0.6096,0.1524]
~ h=[12.1900,13.7200,15.2400,17.0700]
new LineSpacing.1ph-x2_acsrx4_acsr_B nconds=2 nphases=1 units=m
~ x=[-0.1524,0.1524]
~ h=[10.5156,8.2296]
new LineSpacing.1ph-4_wpalxx4_acsr_A nconds=2 nphases=1 units=m
~ x=[-0.1524,0.1524]
~ h=[10.5156,8.2296]
new LineSpacing.1ph-2_wpalxx2_wpal_A nconds=2 nphases=1 units=m
~ x=[-0.1524,0.1524]
~ h=[10.5156,8.2296]
new LineSpacing.1ph-4_acsrxx2_acsr_A nconds=2 nphases=1 units=m
~ x=[-0.1524,0.1524]
~ h=[10.5156,8.2296]
new LineSpacing.1ph-4_acsrxx2_acsr_C nconds=2 nphases=1 units=m
~ x=[-0.1524,0.1524]
~ h=[10.5156,8.2296]
new LineSpacing.1ph-x4_acsrx4_acsr_A nconds=2 nphases=1 units=m
~ x=[-0.1524,0.1524]
~ h=[10.5156,8.2296]
new LineSpacing.1ph-x4_acsrx4_acsr_B nconds=2 nphases=1 units=m
~ x=[-0.1524,0.1524]
~ h=[10.5156,8.2296]
new LineSpacing.3ph_h-4_acsr4_acsr4_acsr4_acsr_ABC nconds=4 nphases=3 units=m
~ x=[-0.6096,0.1524,0.6096,0.1524]
~ h=[9.7536,10.3632,9.7536,8.2296]
new LineSpacing.1ph-xx2_acsr4_dpx_C nconds=2 nphases=1 units=m
~ x=[-0.1524,0.1524]
~ h=[10.5156,8.2296]
new LineSpacing.1ph-x2_acsrx2_acsr_A nconds=2 nphases=1 units=m
~ x=[-0.1524,0.1524]
~ h=[10.5156,8.2296]
new LineSpacing.1ph-x2_acsrx2_acsr_B nconds=2 nphases=1 units=m
~ x=[-0.1524,0.1524]
~ h=[10.5156,8.2296]
new LineSpacing.1ph-x2_acsrx2_acsr_C nconds=2 nphases=1 units=m
~ x=[-0.1524,0.1524]
~ h=[10.5156,8.2296]
new LineSpacing.1ph-4_acsrxx4_wpal_A nconds=2 nphases=1 units=m
~ x=[-0.1524,0.1524]
~ h=[10.5156,8.2296]
new LineSpacing.1ph-xx4_acsr2_acsr_C nconds=2 nphases=1 units=m
~ x=[-0.1524,0.1524]
~ h=[10.5156,8.2296]
new LineSpacing.1ph-4_wpalxx1/0_tpx_A nconds=2 nphases=1 units=m
~ x=[-0.1524,0.1524]
~ h=[10.5156,8.2296]
new LineSpacing.3ph_h-397_acsr397_acsr397_acsr397_acsr_ABC nconds=4 nphases=3 units=m
~ x=[-0.6096,0.1524,0.6096,0.1524]
~ h=[9.7536,10.3632,9.7536,8.2296]
new LineSpacing.1ph-xx2_acsr1/0_tpx_C nconds=2 nphases=1 units=m
~ x=[-0.1524,0.1524]
~ h=[10.5156,8.2296]
new LineSpacing.3ph_h-2_acsr2_acsr2_acsr2_acsr_ABC nconds=4 nphases=3 units=m
~ x=[-0.6096,0.1524,0.6096,0.1524]
~ h=[9.7536,10.3632,9.7536,8.2296]
new LineSpacing.1ph-xx4_acsr4_wpal_A nconds=2 nphases=1 units=m
~ x=[-0.1524,0.1524]
~ h=[10.5156,8.2296]
new LineSpacing.1ph-xx4_acsr4_wpal_C nconds=2 nphases=1 units=m
~ x=[-0.1524,0.1524]
~ h=[10.5156,8.2296]
new LineSpacing.1ph-2/0_acsrxx2_acsr_A nconds=2 nphases=1 units=m
~ x=[-0.1524,0.1524]
~ h=[10.5156,8.2296]
new LineSpacing.1ph-xx2/0_acsr1/0_tpx_C nconds=2 nphases=1 units=m
~ x=[-0.1524,0.1524]
~ h=[10.5156,8.2296]
new LineSpacing.3ph_h-397_acsr397_acsr397_acsr2/0_acsr_ABC nconds=4 nphases=3 units=m
~ x=[-0.6096,0.1524,0.6096,0.1524]
~ h=[9.7536,10.3632,9.7536,8.2296]
new LineSpacing.1ph-xx2_acsr2_acsr_A nconds=2 nphases=1 units=m
~ x=[-0.1524,0.1524]
~ h=[10.5156,8.2296]
new LineSpacing.1ph-xx2_acsr2_acsr_C nconds=2 nphases=1 units=m
~ x=[-0.1524,0.1524]
~ h=[10.5156,8.2296]
new LineSpacing.3ph_h-2/0_acsr2/0_acsr2/0_acsr2_wpal_ABC nconds=4 nphases=3 units=m
~ x=[-0.6096,0.1524,0.6096,0.1524]
~ h=[9.7536,10.3632,9.7536,8.2296]
new LineSpacing.1ph-4_wpalxx4_wpal_A nconds=2 nphases=1 units=m
~ x=[-0.1524,0.1524]
~ h=[10.5156,8.2296]
new LineSpacing.1ph-4_wpalxx4_wpal_C nconds=2 nphases=1 units=m
~ x=[-0.1524,0.1524]
~ h=[10.5156,8.2296]
new LineSpacing.3ph_h-4_acsr4_acsr4_acsr4_tpx_ABC nconds=4 nphases=3 units=m
~ x=[-0.6096,0.1524,0.6096,0.1524]
~ h=[9.7536,10.3632,9.7536,8.2296]
new LineSpacing.1ph-4_acsrxx1/0_3w_cs_A nconds=2 nphases=1 units=m
~ x=[-0.1524,0.1524]
~ h=[10.5156,8.2296]

new Linecode.cap_1c_PUZ nphases=1 units=mi rmatrix=[1.00000 ] xmatrix=[1.00000 ] cmatrix=[0.00000 ]
new Linecode.cap_3b_PUZ nphases=1 units=mi rmatrix=[1.00000 ] xmatrix=[1.00000 ] cmatrix=[0.00000 ]
new Linecode.cap_1b_PUZ nphases=1 units=mi rmatrix=[1.00000 ] xmatrix=[1.00000 ] cmatrix=[0.00000 ]
new Linecode.cap_3a_PUZ nphases=1 units=mi rmatrix=[1.00000 ] xmatrix=[1.00000 ] cmatrix=[0.00000 ]
new Linecode.cap_1a_PUZ nphases=1 units=mi rmatrix=[1.00000 ] xmatrix=[1.00000 ] cmatrix=[0.00000 ]
new Linecode.cap_2a_PUZ nphases=1 units=mi rmatrix=[1.00000 ] xmatrix=[1.00000 ] cmatrix=[0.00000 ]
new Linecode.cap_3c_PUZ nphases=1 units=mi rmatrix=[1.00000 ] xmatrix=[1.00000 ] cmatrix=[0.00000 ]
new Linecode.4/0triplex nphases=2 units=mi rmatrix=[2.16454 | 0.623542 2.16454 ] xmatrix=[0.880800 | 0.673688 0.880800 ] cmatrix=[15.8400 | -12.6720 15.8400 ]
new Linecode.cap_2c_PUZ nphases=1 units=mi rmatrix=[1.00000 ] xmatrix=[1.00000 ] cmatrix=[0.00000 ]
new Linecode.750_triplex nphases=2 units=mi rmatrix=[0.262666 | 0.123666 0.262666 ] xmatrix=[0.146913 | 0.0353481 0.146913 ] cmatrix=[15.8400 | -12.6720 15.8400 ]
new Linecode.cap_2b_PUZ nphases=1 units=mi rmatrix=[1.00000 ] xmatrix=[1.00000 ] cmatrix=[0.00000 ]

new Xfmrcode.ct100 windings=3 phases=1 xhl=2.040000 xht=2.040000 xlt=1.360000 %imag=0.500 %noloadloss=0.200
~ wdg=1 conn=w kv=7.200 kva=100.0 %r=0.600000
~ wdg=2 conn=w kv=0.120 kva=100.0 %r=1.200000
~ wdg=3 conn=w kv=0.120 kva=100.0 %r=1.200000
new Xfmrcode.ct250 windings=3 phases=1 xhl=2.040000 xht=2.040000 xlt=1.360000 %imag=0.500 %noloadloss=0.200
~ wdg=1 conn=w kv=7.200 kva=250.0 %r=0.600000
~ wdg=2 conn=w kv=0.120 kva=250.0 %r=1.200000
~ wdg=3 conn=w kv=0.120 kva=250.0 %r=1.200000
new Xfmrcode.cimxfmrcode_feeder_reg1c windings=2 phases=1 xhl=0.100000 %imag=0.000 %noloadloss=0.000
~ wdg=1 conn=w kv=7.200 kva=27500.0 %r=0.000500
~ wdg=2 conn=w kv=7.200 kva=27500.0 %r=0.000500
new Xfmrcode.cimxfmrcode_feeder_reg1b windings=2 phases=1 xhl=0.100000 %imag=0.000 %noloadloss=0.000
~ wdg=1 conn=w kv=7.200 kva=27500.0 %r=0.000500
~ wdg=2 conn=w kv=7.200 kva=27500.0 %r=0.000500
new Xfmrcode.cimxfmrcode_feeder_reg1a windings=2 phases=1 xhl=0.100000 %imag=0.000 %noloadloss=0.000
~ wdg=1 conn=w kv=7.200 kva=27500.0 %r=0.000500
~ wdg=2 conn=w kv=7.200 kva=27500.0 %r=0.000500
new Xfmrcode.cimxfmrcode_feeder_reg3c windings=2 phases=1 xhl=0.100000 %imag=0.000 %noloadloss=0.000
~ wdg=1 conn=w kv=7.200 kva=27500.0 %r=0.000500
~ wdg=2 conn=w kv=7.200 kva=27500.0 %r=0.000500
new Xfmrcode.cimxfmrcode_feeder_reg3b windings=2 phases=1 xhl=0.100000 %imag=0.000 %noloadloss=0.000
~ wdg=1 conn=w kv=7.200 kva=27500.0 %r=0.000500
~ wdg=2 conn=w kv=7.200 kva=27500.0 %r=0.000500
new Xfmrcode.cimxfmrcode_feeder_reg3a windings=2 phases=1 xhl=0.100000 %imag=0.000 %noloadloss=0.000
~ wdg=1 conn=w kv=7.200 kva=27500.0 %r=0.000500
~ wdg=2 conn=w kv=7.200 kva=27500.0 %r=0.000500
new Xfmrcode.ct25 windings=3 phases=1 xhl=2.040000 xht=2.040000 xlt=1.360000 %imag=0.500 %noloadloss=0.200
~ wdg=1 conn=w kv=7.200 kva=25.0 %r=0.600000
~ wdg=2 conn=w kv=0.120 kva=25.0 %r=1.200000
~ wdg=3 conn=w kv=0.120 kva=25.0 %r=1.200000
new Xfmrcode.cimxfmrcode_vreg2_b windings=2 phases=1 xhl=0.100000 %imag=0.000 %noloadloss=0.000
~ wdg=1 conn=w kv=7.200 kva=10000.0 %r=0.005000
~ wdg=2 conn=w kv=7.200 kva=10000.0 %r=0.005000
new Xfmrcode.cimxfmrcode_vreg3_a windings=2 phases=1 xhl=0.100000 %imag=0.000 %noloadloss=0.000
~ wdg=1 conn=w kv=7.200 kva=10000.0 %r=0.005000
~ wdg=2 conn=w kv=7.200 kva=10000.0 %r=0.005000
new Xfmrcode.cimxfmrcode_vreg2_a windings=2 phases=1 xhl=0.100000 %imag=0.000 %noloadloss=0.000
~ wdg=1 conn=w kv=7.200 kva=10000.0 %r=0.005000
~ wdg=2 conn=w kv=7.200 kva=10000.0 %r=0.005000
new Xfmrcode.cimxfmrcode_vreg4_c windings=2 phases=1 xhl=0.100000 %imag=0.000 %noloadloss=0.000
~ wdg=1 conn=w kv=7.200 kva=10000.0 %r=0.005000
~ wdg=2 conn=w kv=7.200 kva=10000.0 %r=0.005000
new Xfmrcode.ct75 windings=3 phases=1 xhl=2.040000 xht=2.040000 xlt=1.360000 %imag=0.500 %noloadloss=0.200
~ wdg=1 conn=w kv=7.200 kva=75.0 %r=0.600000
~ wdg=2 conn=w kv=0.120 kva=75.0 %r=1.200000
~ wdg=3 conn=w kv=0.120 kva=75.0 %r=1.200000
new Xfmrcode.cimxfmrcode_vreg3_c windings=2 phases=1 xhl=0.100000 %imag=0.000 %noloadloss=0.000
~ wdg=1 conn=w kv=7.200 kva=10000.0 %r=0.005000
~ wdg=2 conn=w kv=7.200 kva=10000.0 %r=0.005000
new Xfmrcode.cimxfmrcode_vreg4_b windings=2 phases=1 xhl=0.100000 %imag=0.000 %noloadloss=0.000
~ wdg=1 conn=w kv=7.200 kva=10000.0 %r=0.005000
~ wdg=2 conn=w kv=7.200 kva=10000.0 %r=0.005000
new Xfmrcode.ct50 windings=3 phases=1 xhl=2.040000 xht=2.040000 xlt=1.360000 %imag=0.500 %noloadloss=0.200
~ wdg=1 conn=w kv=7.200 kva=50.0 %r=0.600000
~ wdg=2 conn=w kv=0.120 kva=50.0 %r=1.200000
~ wdg=3 conn=w kv=0.120 kva=50.0 %r=1.200000
new Xfmrcode.cimxfmrcode_vreg2_c windings=2 phases=1 xhl=0.100000 %imag=0.000 %noloadloss=0.000
~ wdg=1 conn=w kv=7.200 kva=10000.0 %r=0.005000
~ wdg=2 conn=w kv=7.200 kva=10000.0 %r=0.005000
new Xfmrcode.cimxfmrcode_vreg3_b windings=2 phases=1 xhl=0.100000 %imag=0.000 %noloadloss=0.000
~ wdg=1 conn=w kv=7.200 kva=10000.0 %r=0.005000
~ wdg=2 conn=w kv=7.200 kva=10000.0 %r=0.005000
new Xfmrcode.cimxfmrcode_vreg4_a windings=2 phases=1 xhl=0.100000 %imag=0.000 %noloadloss=0.000
~ wdg=1 conn=w kv=7.200 kva=10000.0 %r=0.005000
~ wdg=2 conn=w kv=7.200 kva=10000.0 %r=0.005000
new Xfmrcode.ct5 windings=3 phases=1 xhl=2.040000 xht=2.040000 xlt=1.360000 %imag=0.500 %noloadloss=0.200
~ wdg=1 conn=w kv=7.200 kva=5.0 %r=0.600000
~ wdg=2 conn=w kv=0.120 kva=5.0 %r=1.200000
~ wdg=3 conn=w kv=0.120 kva=5.0 %r=1.200000
new Xfmrcode.cimxfmrcode_feeder_reg2c windings=2 phases=1 xhl=0.100000 %imag=0.000 %noloadloss=0.000
~ wdg=1 conn=w kv=7.200 kva=27500.0 %r=0.000500
~ wdg=2 conn=w kv=7.200 kva=27500.0 %r=0.000500
new Xfmrcode.cimxfmrcode_feeder_reg2b windings=2 phases=1 xhl=0.100000 %imag=0.000 %noloadloss=0.000
~ wdg=1 conn=w kv=7.200 kva=27500.0 %r=0.000500
~ wdg=2 conn=w kv=7.200 kva=27500.0 %r=0.000500
new Xfmrcode.cimxfmrcode_feeder_reg2a windings=2 phases=1 xhl=0.100000 %imag=0.000 %noloadloss=0.000
~ wdg=1 conn=w kv=7.200 kva=27500.0 %r=0.000500
~ wdg=2 conn=w kv=7.200 kva=27500.0 %r=0.000500
new Xfmrcode.ct15 windings=3 phases=1 xhl=2.040000 xht=2.040000 xlt=1.360000 %imag=0.500 %noloadloss=0.200
~ wdg=1 conn=w kv=7.200 kva=15.0 %r=0.600000
~ wdg=2 conn=w kv=0.120 kva=15.0 %r=1.200000
~ wdg=3 conn=w kv=0.120 kva=15.0 %r=1.200000
new Xfmrcode.ct37 windings=3 phases=1 xhl=2.040000 xht=2.040000 xlt=1.360000 %imag=0.500 %noloadloss=0.200
~ wdg=1 conn=w kv=7.200 kva=37.5 %r=0.600000
~ wdg=2 conn=w kv=0.120 kva=37.5 %r=1.200000
~ wdg=3 conn=w kv=0.120 kva=37.5 %r=1.200000
new Xfmrcode.ct10 windings=3 phases=1 xhl=2.040000 xht=2.040000 xlt=1.360000 %imag=0.500 %noloadloss=0.200
~ wdg=1 conn=w kv=7.200 kva=10.0 %r=0.600000
~ wdg=2 conn=w kv=0.120 kva=10.0 %r=1.200000
~ wdg=3 conn=w kv=0.120 kva=10.0 %r=1.200000

new PVSystem.pv_6 phases=2 bus1=sx2000404a.1.2 conn=w kva=12.140 kv=0.208 pmpp=9.710 irrad=1.000 pf=1.0000 vminpu=0.9000 LimitCurrent=yes %cutin=20.00 %cutout=20.00
new PVSystem.pv_8 phases=2 bus1=sx2000405a.2.1 conn=w kva=18.660 kv=0.208 pmpp=14.930 irrad=1.000 pf=1.0000 vminpu=0.9000 LimitCurrent=yes %cutin=20.00 %cutout=20.00
new PVSystem.pv_2 phases=2 bus1=sx2000402a.2.1 conn=w kva=14.060 kv=0.208 pmpp=11.250 irrad=1.000 pf=1.0000 vminpu=0.9000 LimitCurrent=yes %cutin=20.00 %cutout=20.00
new PVSystem.pv_4 phases=2 bus1=sx2000403a.2.1 conn=w kva=15.700 kv=0.208 pmpp=12.560 irrad=1.000 pf=1.0000 vminpu=0.9000 LimitCurrent=yes %cutin=20.00 %cutout=20.00
new PVSystem.pv_1043 phases=2 bus1=sx2804272b.1.2 conn=w kva=7.300 kv=0.208 pmpp=5.840 irrad=1.000 pf=1.0000 vminpu=0.9000 LimitCurrent=yes %cutin=20.00 %cutout=20.00
new PVSystem.pv_156 phases=2 bus1=sx2001309a.1.2 conn=w kva=10.310 kv=0.208 pmpp=8.250 irrad=1.000 pf=1.0000 vminpu=0.9000 LimitCurrent=yes %cutin=20.00 %cutout=20.00
new PVSystem.pv_1163 phases=2 bus1=sx2879078a.2.1 conn=w kva=6.700 kv=0.208 pmpp=5.320 irrad=1.000 pf=1.0000 vminpu=0.9000 LimitCurrent=yes %cutin=20.00 %cutout=20.00
new PVSystem.pv_1041 phases=2 bus1=sx2803199b.2.1 conn=w kva=24.300 kv=0.208 pmpp=19.450 irrad=1.000 pf=1.0000 vminpu=0.9000 LimitCurrent=yes %cutin=20.00 %cutout=20.00
new PVSystem.pv_158 phases=2 bus1=sx2001310a.1.2 conn=w kva=22.680 kv=0.208 pmpp=18.150 irrad=1.000 pf=1.0000 vminpu=0.9000 LimitCurrent=yes %cutin=20.00 %cutout=20.00
new PVSystem.pv_1161 phases=2 bus1=sx2730149c.2.1 conn=w kva=7.700 kv=0.208 pmpp=6.100 irrad=1.000 pf=1.0000 vminpu=0.9000 LimitCurrent=yes %cutin=20.00 %cutout=20.00
new PVSystem.pv_50 phases=2 bus1=sx2000712b.2.1 conn=w kva=14.000 kv=0.208 pmpp=11.200 irrad=1.000 pf=1.0000 vminpu=0.9000 LimitCurrent=yes %cutin=20.00 %cutout=20.00
new PVSystem.pv_52 phases=2 bus1=sx2000713b.2.1 conn=w kva=15.970 kv=0.208 pmpp=12.780 irrad=1.000 pf=1.0000 vminpu=0.9000 LimitCurrent=yes %cutin=20.00 %cutout=20.00
new PVSystem.pv_54 phases=2 bus1=sx2000714b.2.1 conn=w kva=11.320 kv=0.208 pmpp=9.050 irrad=1.000 pf=1.0000 vminpu=0.9000 LimitCurrent=yes %cutin=20.00 %cutout=20.00
new PVSystem.pv_1049 phases=2 bus1=sx2814529c.1.2 conn=w kva=25.400 kv=0.208 pmpp=20.340 irrad=1.000 pf=1.0000 vminpu=0.9000 LimitCurrent=yes %cutin=20.00 %cutout=20.00
new PVSystem.pv_150 phases=2 bus1=sx2001306a.1.2 conn=w kva=11.840 kv=0.208 pmpp=9.470 irrad=1.000 pf=1.0000 vminpu=0.9000 LimitCurrent=yes %cutin=20.00 %cutout=20.00
new PVSystem.pv_1169 phases=2 bus1=sx2673317a.1.2 conn=w kva=6.700 kv=0.208 pmpp=5.320 irrad=1.000 pf=1.0000 vminpu=0.9000 LimitCurrent=yes %cutin=20.00 %cutout=20.00
new PVSystem.pv_56 phases=2 bus1=sx2000715b.2.1 conn=w kva=14.060 kv=0.208 pmpp=11.250 irrad=1.000 pf=1.0000 vminpu=0.9000 LimitCurrent=yes %cutin=20.00 %cutout=20.00
new PVSystem.pv_1047 phases=2 bus1=sx3104155c.2.1 conn=w kva=12.700 kv=0.208 pmpp=10.170 irrad=1.000 pf=1.0000 vminpu=0.9000 LimitCurrent=yes %cutin=20.00 %cutout=20.00
new PVSystem.pv_152 phases=2 bus1=sx2001307a.2.1 conn=w kva=17.480 kv=0.208 pmpp=13.990 irrad=1.000 pf=1.0000 vminpu=0.9000 LimitCurrent=yes %cutin=20.00 %cutout=20.00
new PVSystem.pv_1167 phases=2 bus1=sx2897792a.1.2 conn=w kva=6.700 kv=0.208 pmpp=5.320 irrad=1.000 pf=1.0000 vminpu=0.9000 LimitCurrent=yes %cutin=20.00 %cutout=20.00
new PVSystem.pv_58 phases=2 bus1=sx2000902c.2.1 conn=w kva=14.060 kv=0.208 pmpp=11.250 irrad=1.000 pf=1.0000 vminpu=0.9000 LimitCurrent=yes %cutin=20.00 %cutout=20.00
new PVSystem.pv_1045 phases=2 bus1=sx3216347c.1.2 conn=w kva=7.600 kv=0.208 pmpp=6.100 irrad=1.000 pf=1.0000 vminpu=0.9000 LimitCurrent=yes %cutin=20.00 %cutout=20.00
new PVSystem.pv_154 phases=2 bus1=sx2001308a.2.1 conn=w kva=18.300 kv=0.208 pmpp=14.650 irrad=1.000 pf=1.0000 vminpu=0.9000 LimitCurrent=yes %cutin=20.00 %cutout=20.00
new PVSystem.pv_1165 phases=2 bus1=sx3197637c.1.2 conn=w kva=5.100 kv=0.208 pmpp=4.070 irrad=1.000 pf=1.0000 vminpu=0.9000 LimitCurrent=yes %cutin=20.00 %cutout=20.00
new PVSystem.pv_1153 phases=2 bus1=sx2748143a.2.1 conn=w kva=11.100 kv=0.208 pmpp=8.870 irrad=1.000 pf=1.0000 vminpu=0.9000 LimitCurrent=yes %cutin=20.00 %cutout=20.00
new PVSystem.pv_1031 phases=2 bus1=sx3178981b.1.2 conn=w kva=12.100 kv=0.208 pmpp=9.730 irrad=1.000 pf=1.0000 vminpu=0.9000 LimitCurrent=yes %cutin=20.00 %cutout=20.00
new PVSystem.pv_166 phases=2 bus1=sx2001314a.2.1 conn=w kva=26.810 kv=0.208 pmpp=21.450 irrad=1.000 pf=1.0000 vminpu=0.9000 LimitCurrent=yes %cutin=20.00 %cutout=20.00
new PVSystem.pv_1151 phases=2 bus1=sx3101194c.2.1 conn=w kva=38.100 kv=0.208 pmpp=30.520 irrad=1.000 pf=1.0000 vminpu=0.9000 LimitCurrent=yes %cutin=20.00 %cutout=20.00
new PVSystem.pv_168 phases=2 bus1=sx2001315a.2.1 conn=w kva=24.910 kv=0.208 pmpp=19.930 irrad=1.000 pf=1.0000 vminpu=0.9000 LimitCurrent=yes %cutin=20.00 %cutout=20.00
new PVSystem.pv_40 phases=2 bus1=sx2000707b.2.1 conn=w kva=12.370 kv=0.208 pmpp=9.900 irrad=1.000 pf=1.0000 vminpu=0.9000 LimitCurrent=yes %cutin=20.00 %cutout=20.00
new PVSystem.pv_42 phases=2 bus1=sx2000708b.1.2 conn=w kva=15.270 kv=0.208 pmpp=12.220 irrad=1.000 pf=1.0000 vminpu=0.9000 LimitCurrent=yes %cutin=20.00 %cutout=20.00
new PVSystem.pv_44 phases=2 bus1=sx2000709b.2.1 conn=w kva=10.900 kv=0.208 pmpp=8.710 irrad=1.000 pf=1.0000 vminpu=0.9000 LimitCurrent=yes %cutin=20.00 %cutout=20.00
new PVSystem.pv_1039 phases=2 bus1=sx2766721a.2.1 conn=w kva=11.100 kv=0.208 pmpp=8.870 irrad=1.000 pf=1.0000 vminpu=0.9000 LimitCurrent=yes %cutin=20.00 %cutout=20.00
new PVSystem.pv_1159 phases=2 bus1=sx3104144a.2.1 conn=w kva=4.400 kv=0.208 pmpp=3.550 irrad=1.000 pf=1.0000 vminpu=0.9000 LimitCurrent=yes %cutin=20.00 %cutout=20.00
new PVSystem.pv_46 phases=2 bus1=sx2000710b.1.2 conn=w kva=13.070 kv=0.208 pmpp=10.450 irrad=1.000 pf=1.0000 vminpu=0.9000 LimitCurrent=yes %cutin=20.00 %cutout=20.00
new PVSystem.pv_1037 phases=2 bus1=sx2729428a.2.1 conn=w kva=6.700 kv=0.208 pmpp=5.320 irrad=1.000 pf=1.0000 vminpu=0.9000 LimitCurrent=yes %cutin=20.00 %cutout=20.00
new PVSystem.pv_160 phases=2 bus1=sx2001311a.2.1 conn=w kva=20.060 kv=0.208 pmpp=16.040 irrad=1.000 pf=1.0000 vminpu=0.9000 LimitCurrent=yes %cutin=20.00 %cutout=20.00
new PVSystem.pv_1157 phases=2 bus1=sx2710521a.1.2 conn=w kva=11.100 kv=0.208 pmpp=8.870 irrad=1.000 pf=1.0000 vminpu=0.9000 LimitCurrent=yes %cutin=20.00 %cutout=20.00
new PVSystem.pv_48 phases=2 bus1=sx2000711b.2.1 conn=w kva=8.800 kv=0.208 pmpp=7.040 irrad=1.000 pf=1.0000 vminpu=0.9000 LimitCurrent=yes %cutin=20.00 %cutout=20.00
new PVSystem.pv_1035 phases=2 bus1=sx2935551c.2.1 conn=w kva=7.600 kv=0.208 pmpp=6.100 irrad=1.000 pf=1.0000 vminpu=0.9000 LimitCurrent=yes %cutin=20.00 %cutout=20.00
new PVSystem.pv_162 phases=2 bus1=sx2001312a.1.2 conn=w kva=18.170 kv=0.208 pmpp=14.540 irrad=1.000 pf=1.0000 vminpu=0.9000 LimitCurrent=yes %cutin=20.00 %cutout=20.00
new PVSystem.pv_1155 phases=2 bus1=sx3252336b.1.2 conn=w kva=18.300 kv=0.208 pmpp=14.590 irrad=1.000 pf=1.0000 vminpu=0.9000 LimitCurrent=yes %cutin=20.00 %cutout=20.00
new PVSystem.pv_1033 phases=2 bus1=sx2710510c.1.2 conn=w kva=5.100 kv=0.208 pmpp=4.070 irrad=1.000 pf=1.0000 vminpu=0.9000 LimitCurrent=yes %cutin=20.00 %cutout=20.00
new PVSystem.pv_164 phases=2 bus1=sx2001313a.1.2 conn=w kva=27.960 kv=0.208 pmpp=22.370 irrad=1.000 pf=1.0000 vminpu=0.9000 LimitCurrent=yes %cutin=20.00 %cutout=20.00
new PVSystem.pv_1019 phases=2 bus1=sx2841636b.1.2 conn=w kva=7.300 kv=0.208 pmpp=5.840 irrad=1.000 pf=1.0000 vminpu=0.9000 LimitCurrent=yes %cutin=20.00 %cutout=20.00
new PVSystem.pv_1021 phases=2 bus1=sx2955005b.1.2 conn=w kva=7.300 kv=0.208 pmpp=5.840 irrad=1.000 pf=1.0000 vminpu=0.9000 LimitCurrent=yes %cutin=20.00 %cutout=20.00
new PVSystem.pv_134 phases=2 bus1=sx2001212c.2.1 conn=w kva=22.350 kv=0.208 pmpp=17.880 irrad=1.000 pf=1.0000 vminpu=0.9000 LimitCurrent=yes %cutin=20.00 %cutout=20.00
new PVSystem.pv_1141 phases=2 bus1=sx2766750c.2.1 conn=w kva=19.100 kv=0.208 pmpp=15.260 irrad=1.000 pf=1.0000 vminpu=0.9000 LimitCurrent=yes %cutin=20.00 %cutout=20.00
new PVSystem.pv_136 phases=2 bus1=sx2001213c.2.1 conn=w kva=22.600 kv=0.208 pmpp=18.080 irrad=1.000 pf=1.0000 vminpu=0.9000 LimitCurrent=yes %cutin=20.00 %cutout=20.00
new PVSystem.pv_138 phases=2 bus1=sx2001214c.1.2 conn=w kva=21.100 kv=0.208 pmpp=16.870 irrad=1.000 pf=1.0000 vminpu=0.9000 LimitCurrent=yes %cutin=20.00 %cutout=20.00
new PVSystem.pv_30 phases=2 bus1=sx2000702b.2.1 conn=w kva=13.160 kv=0.208 pmpp=10.520 irrad=1.000 pf=1.0000 vminpu=0.9000 LimitCurrent=yes %cutin=20.00 %cutout=20.00
new PVSystem.pv_1029 phases=2 bus1=sx2804252a.1.2 conn=w kva=11.100 kv=0.208 pmpp=8.870 irrad=1.000 pf=1.0000 vminpu=0.9000 LimitCurrent=yes %cutin=20.00 %cutout=20.00
new PVSystem.pv_1149 phases=2 bus1=sx2992657a.1.2 conn=w kva=11.100 kv=0.208 pmpp=8.870 irrad=1.000 pf=1.0000 vminpu=0.9000 LimitCurrent=yes %cutin=20.00 %cutout=20.00
new PVSystem.pv_32 phases=2 bus1=sx2000703b.2.1 conn=w kva=11.920 kv=0.208 pmpp=9.540 irrad=1.000 pf=1.0000 vminpu=0.9000 LimitCurrent=yes %cutin=20.00 %cutout=20.00
new PVSystem.pv_1027 phases=2 bus1=sx2674051a.2.1 conn=w kva=6.600 kv=0.208 pmpp=5.320 irrad=1.000 pf=1.0000 vminpu=0.9000 LimitCurrent=yes %cutin=20.00 %cutout=20.00
new PVSystem.pv_1147 phases=2 bus1=sx2822867b.2.1 conn=w kva=7.300 kv=0.208 pmpp=5.840 irrad=1.000 pf=1.0000 vminpu=0.9000 LimitCurrent=yes %cutin=20.00 %cutout=20.00
new PVSystem.pv_34 phases=2 bus1=sx2000704b.2.1 conn=w kva=12.780 kv=0.208 pmpp=10.220 irrad=1.000 pf=1.0000 vminpu=0.9000 LimitCurrent=yes %cutin=20.00 %cutout=20.00
new PVSystem.pv_1025 phases=2 bus1=sx3048965b.1.2 conn=w kva=18.200 kv=0.208 pmpp=14.590 irrad=1.000 pf=1.0000 vminpu=0.9000 LimitCurrent=yes %cutin=20.00 %cutout=20.00
new PVSystem.pv_130 phases=2 bus1=sx2001210c.1.2 conn=w kva=16.800 kv=0.208 pmpp=13.440 irrad=1.000 pf=1.0000 vminpu=0.9000 LimitCurrent=yes %cutin=20.00 %cutout=20.00
new PVSystem.pv_1145 phases=2 bus1=sx3235243c.1.2 conn=w kva=12.700 kv=0.208 pmpp=10.170 irrad=1.000 pf=1.0000 vminpu=0.9000 LimitCurrent=yes %cutin=20.00 %cutout=20.00
new PVSystem.pv_36 phases=2 bus1=sx2000705b.2.1 conn=w kva=12.090 kv=0.208 pmpp=9.670 irrad=1.000 pf=1.0000 vminpu=0.9000 LimitCurrent=yes %cutin=20.00 %cutout=20.00
new PVSystem.pv_1023 phases=2 bus1=sx3254214b.1.2 conn=w kva=12.200 kv=0.208 pmpp=9.730 irrad=1.000 pf=1.0000 vminpu=0.9000 LimitCurrent=yes %cutin=20.00 %cutout=20.00
new PVSystem.pv_132 phases=2 bus1=sx2001211c.2.1 conn=w kva=29.270 kv=0.208 pmpp=23.420 irrad=1.000 pf=1.0000 vminpu=0.9000 LimitCurrent=yes %cutin=20.00 %cutout=20.00
new PVSystem.pv_1143 phases=2 bus1=sx2973148a.1.2 conn=w kva=11.100 kv=0.208 pmpp=8.870 irrad=1.000 pf=1.0000 vminpu=0.9000 LimitCurrent=yes %cutin=20.00 %cutout=20.00
new PVSystem.pv_38 phases=2 bus1=sx2000706b.2.1 conn=w kva=14.730 kv=0.208 pmpp=11.790 irrad=1.000 pf=1.0000 vminpu=0.9000 LimitCurrent=yes %cutin=20.00 %cutout=20.00
new PVSystem.pv_18 phases=2 bus1=sx2000410a.2.1 conn=w kva=18.120 kv=0.208 pmpp=14.490 irrad=1.000 pf=1.0000 vminpu=0.9000 LimitCurrent=yes %cutin=20.00 %cutout=20.00
new PVSystem.pv_1009 phases=2 bus1=sx2691946b.2.1 conn=w kva=7.300 kv=0.208 pmpp=5.850 irrad=1.000 pf=1.0000 vminpu=0.9000 LimitCurrent=yes %cutin=20.00 %cutout=20.00
new PVSystem.pv_1129 phases=2 bus1=sx3104134c.2.1 conn=w kva=12.700 kv=0.208 pmpp=10.170 irrad=1.000 pf=1.0000 vminpu=0.9000 LimitCurrent=yes %cutin=20.00 %cutout=20.00
new PVSystem.pv_1131 phases=2 bus1=sx2955077c.2.1 conn=w kva=12.700 kv=0.208 pmpp=10.170 irrad=1.000 pf=1.0000 vminpu=0.9000 LimitCurrent=yes %cutin=20.00 %cutout=20.00
new PVSystem.pv_1097 phases=2 bus1=sx3067478a.2.1 conn=w kva=16.700 kv=0.208 pmpp=13.300 irrad=1.000 pf=1.0000 vminpu=0.9000 LimitCurrent=yes %cutin=20.00 %cutout=20.00
new PVSystem.pv_144 phases=2 bus1=sx2001303a.1.2 conn=w kva=16.150 kv=0.208 pmpp=12.910 irrad=1.000 pf=1.0000 vminpu=0.9000 LimitCurrent=yes %cutin=20.00 %cutout=20.00