clear
set defaultbasefrequency=60.0
new Circuit.source phases=3 bus1=p1 basekv=230.000 pu=1.05000 angle=0.00000 r0=0.08381 x0=0.25142 r1=0.06415 x1=0.25660
set earthmodel=carson

new Linecode.sec6 nphases=3 units=mi rmatrix=[0.0560320 | 0.0214300 0.0546940 | 0.0221200 0.0214300 0.0560320 ] xmatrix=[0.0850510 | 0.0447810 0.0958580 | 0.0322690 0.0447810 0.0850510 ] cmatrix=[204.520 | -72.4734 205.171 | -24.7286 -72.4734 204.520 ]
new Linecode.sec5 nphases=3 units=mi rmatrix=[0.0672380 | 0.0257160 0.0656330 | 0.0265440 0.0257160 0.0672380 ] xmatrix=[0.102061 | 0.0537370 0.115029 | 0.0387230 0.0537370 0.102061 ] cmatrix=[170.433 | -60.3945 170.976 | -20.6072 -60.3945 170.433 ]
new Linecode.pri1 nphases=3 units=mi rmatrix=[0.130180 | -4.14314e-06 0.130177 | -8.11898e-06 -4.14314e-06 0.130180 ] xmatrix=[0.0668195 | -0.000224891 0.0669850 | -4.28350e-05 -0.000224891 0.0668195 ] cmatrix=[566.228 | 0.00000 566.228 | 0.00000 0.00000 566.228 ]
new Linecode.trans1 nphases=3 units=mi rmatrix=[0.145190 | 0.0925205 0.145190 | 0.0925186 0.0925205 0.145190 ] xmatrix=[1.41011 | 0.695545 1.41011 | 0.611437 0.695545 1.41011 ] cmatrix=[12.4232 | -3.11310 12.9890 | -1.63202 -3.11310 12.4232 ]

new Load.1 phases=1 bus1=s193.1 conn=w kw=364.070 kvar=91.245 numcust=1 kv=0.277 model=1
new Load.2 phases=1 bus1=s193.2 conn=w kw=413.730 kvar=150.164 numcust=1 kv=0.277 model=1
new Load.3 phases=1 bus1=s193.3 conn=w kw=360.050 kvar=164.044 numcust=1 kv=0.277 model=1
new Load.4 phases=1 bus1=s193.1.2 conn=d kw=96.800 kvar=67.567 numcust=1 kv=0.480 model=1
new Load.5 phases=1 bus1=s193.2.3 conn=d kw=132.060 kvar=99.045 numcust=1 kv=0.480 model=1
new Load.6 phases=1 bus1=s193.3.1 conn=d kw=95.210 kvar=76.385 numcust=1 kv=0.480 model=1
new Load.7 phases=1 bus1=s198.1 conn=w kw=90.830 kvar=22.764 numcust=1 kv=0.277 model=1
new Load.8 phases=1 bus1=s198.2 conn=w kw=97.250 kvar=19.747 numcust=1 kv=0.277 model=1
new Load.9 phases=1 bus1=s198.3 conn=w kw=100.790 kvar=39.835 numcust=1 kv=0.277 model=1
new Load.600 phases=1 bus1=s139.3.1 conn=d kw=35.470 kvar=27.528 numcust=1 kv=0.208 model=1
new Load.601 phases=1 bus1=s140.1 conn=w kw=14.270 kvar=2.033 numcust=1 kv=0.120 model=1
new Load.602 phases=1 bus1=s140.2 conn=w kw=12.090 kvar=5.150 numcust=1 kv=0.120 model=1
new Load.603 phases=1 bus1=s140.3 conn=w kw=13.660 kvar=2.774 numcust=1 kv=0.120 model=1
new Load.604 phases=1 bus1=s140.1.2 conn=d kw=29.390 kvar=20.514 numcust=1 kv=0.208 model=1
new Load.605 phases=1 bus1=s140.2.3 conn=d kw=33.660 kvar=21.742 numcust=1 kv=0.208 model=1
new Load.606 phases=1 bus1=s140.3.1 conn=d kw=29.880 kvar=20.856 numcust=1 kv=0.208 model=1
new Load.607 phases=1 bus1=s142.1 conn=w kw=13.220 kvar=6.023 numcust=1 kv=0.120 model=1
new Load.608 phases=1 bus1=s142.2 conn=w kw=12.400 kvar=5.282 numcust=1 kv=0.120 model=1
new Load.609 phases=1 bus1=s142.3 conn=w kw=12.260 kvar=4.030 numcust=1 kv=0.120 model=1
new Load.610 phases=1 bus1=s142.1.2 conn=d kw=36.880 kvar=30.560 numcust=1 kv=0.208 model=1
new Load.611 phases=1 bus1=s142.2.3 conn=d kw=31.620 kvar=20.425 numcust=1 kv=0.208 model=1
new Load.612 phases=1 bus1=s142.3.1 conn=d kw=36.310 kvar=31.051 numcust=1 kv=0.208 model=1
new Load.613 phases=1 bus1=s143.1 conn=w kw=12.610 kvar=4.984 numcust=1 kv=0.120 model=1
new Load.614 phases=1 bus1=s143.2 conn=w kw=15.460 kvar=3.875 numcust=1 kv=0.120 model=1
new Load.615 phases=1 bus1=s143.3 conn=w kw=15.220 kvar=5.524 numcust=1 kv=0.120 model=1
new Load.616 phases=1 bus1=s143.1.2 conn=d kw=30.620 kvar=24.566 numcust=1 kv=0.208 model=1
new Load.617 phases=1 bus1=s143.2.3 conn=d kw=38.280 kvar=26.720 numcust=1 kv=0.208 model=1
new Load.618 phases=1 bus1=s143.3.1 conn=d kw=29.340 kvar=19.717 numcust=1 kv=0.208 model=1
new Load.619 phases=1 bus1=s144.1 conn=w kw=12.170 kvar=3.550 numcust=1 kv=0.120 model=1
new Load.620 phases=1 bus1=s144.2 conn=w kw=15.530 kvar=6.138 numcust=1 kv=0.120 model=1
new Load.500 phases=1 bus1=s120.2 conn=w kw=36.760 kvar=16.748 numcust=1 kv=0.120 model=1
new Load.621 phases=1 bus1=s144.3 conn=w kw=14.780 kvar=3.001 numcust=1 kv=0.120 model=1
new Load.501 phases=1 bus1=s120.3 conn=w kw=38.020 kvar=17.322 numcust=1 kv=0.120 model=1
new Load.622 phases=1 bus1=s144.1.2 conn=d kw=28.760 kvar=23.074 numcust=1 kv=0.208 model=1
new Load.502 phases=1 bus1=s120.1.2 conn=d kw=92.720 kvar=67.128 numcust=1 kv=0.208 model=1
new Load.623 phases=1 bus1=s144.2.3 conn=d kw=37.850 kvar=27.403 numcust=1 kv=0.208 model=1
new Load.503 phases=1 bus1=s120.2.3 conn=d kw=93.460 kvar=72.533 numcust=1 kv=0.208 model=1
new Load.624 phases=1 bus1=s144.3.1 conn=d kw=29.310 kvar=20.459 numcust=1 kv=0.208 model=1
new Load.504 phases=1 bus1=s120.3.1 conn=d kw=93.330 kvar=67.570 numcust=1 kv=0.208 model=1
new Load.505 phases=1 bus1=s121.1 conn=w kw=35.990 kvar=5.128 numcust=1 kv=0.120 model=1
new Load.506 phases=1 bus1=s121.2 conn=w kw=33.870 kvar=14.429 numcust=1 kv=0.120 model=1
new Load.507 phases=1 bus1=s121.3 conn=w kw=38.450 kvar=13.955 numcust=1 kv=0.120 model=1
new Load.508 phases=1 bus1=s121.1.2 conn=d kw=108.000 kvar=78.191 numcust=1 kv=0.208 model=1
new Load.509 phases=1 bus1=s121.2.3 conn=d kw=87.530 kvar=67.931 numcust=1 kv=0.208 model=1
new Load.510 phases=1 bus1=s121.3.1 conn=d kw=98.290 kvar=63.489 numcust=1 kv=0.208 model=1
new Load.511 phases=1 bus1=s122.1 conn=w kw=45.210 kvar=20.598 numcust=1 kv=0.120 model=1
new Load.512 phases=1 bus1=s122.2 conn=w kw=44.470 kvar=9.030 numcust=1 kv=0.120 model=1
new Load.513 phases=1 bus1=s122.3 conn=w kw=43.610 kvar=10.930 numcust=1 kv=0.120 model=1
new Load.514 phases=1 bus1=s122.1.2 conn=d kw=113.680 kvar=73.430 numcust=1 kv=0.208 model=1
new Load.515 phases=1 bus1=s122.2.3 conn=d kw=92.630 kvar=69.472 numcust=1 kv=0.208 model=1
new Load.516 phases=1 bus1=s122.3.1 conn=d kw=104.750 kvar=89.578 numcust=1 kv=0.208 model=1
new Load.517 phases=1 bus1=s123.1 conn=w kw=13.310 kvar=4.375 numcust=1 kv=0.120 model=1
new Load.518 phases=1 bus1=s123.2 conn=w kw=13.050 kvar=5.158 numcust=1 kv=0.120 model=1
new Load.519 phases=1 bus1=s123.3 conn=w kw=13.710 kvar=3.999 numcust=1 kv=0.120 model=1
new Load.520 phases=1 bus1=s123.1.2 conn=d kw=33.850 kvar=23.627 numcust=1 kv=0.208 model=1
new Load.400 phases=1 bus1=s88.1.2 conn=d kw=130.130 kvar=104.401 numcust=1 kv=0.208 model=1
new Load.521 phases=1 bus1=s123.2.3 conn=d kw=37.880 kvar=27.425 numcust=1 kv=0.208 model=1
new Load.401 phases=1 bus1=s88.2.3 conn=d kw=144.170 kvar=100.631 numcust=1 kv=0.208 model=1
new Load.522 phases=1 bus1=s123.3.1 conn=d kw=37.590 kvar=31.148 numcust=1 kv=0.208 model=1
new Load.402 phases=1 bus1=s88.3.1 conn=d kw=140.750 kvar=98.244 numcust=1 kv=0.208 model=1
new Load.523 phases=1 bus1=s124.1 conn=w kw=16.690 kvar=4.868 numcust=1 kv=0.120 model=1
new Load.403 phases=1 bus1=s89.1 conn=w kw=38.000 kvar=9.524 numcust=1 kv=0.120 model=1
new Load.524 phases=1 bus1=s124.2 conn=w kw=12.230 kvar=1.743 numcust=1 kv=0.120 model=1
new Load.404 phases=1 bus1=s89.2 conn=w kw=49.550 kvar=7.060 numcust=1 kv=0.120 model=1
new Load.525 phases=1 bus1=s124.3 conn=w kw=16.190 kvar=3.288 numcust=1 kv=0.120 model=1
new Load.405 phases=1 bus1=s89.3 conn=w kw=48.750 kvar=16.023 numcust=1 kv=0.120 model=1
new Load.526 phases=1 bus1=s124.1.2 conn=d kw=34.550 kvar=26.814 numcust=1 kv=0.208 model=1
new Load.406 phases=1 bus1=s89.1.2 conn=d kw=121.250 kvar=81.480 numcust=1 kv=0.208 model=1
new Load.527 phases=1 bus1=s124.2.3 conn=d kw=29.380 kvar=24.345 numcust=1 kv=0.208 model=1
new Load.407 phases=1 bus1=s89.2.3 conn=d kw=107.770 kvar=92.161 numcust=1 kv=0.208 model=1
new Load.528 phases=1 bus1=s124.3.1 conn=d kw=29.050 kvar=21.788 numcust=1 kv=0.208 model=1
new Load.408 phases=1 bus1=s89.3.1 conn=d kw=125.350 kvar=84.236 numcust=1 kv=0.208 model=1
new Load.529 phases=1 bus1=s125.1 conn=w kw=12.400 kvar=5.650 numcust=1 kv=0.120 model=1
new Load.409 phases=1 bus1=s92.1 conn=w kw=53.370 kvar=17.542 numcust=1 kv=0.120 model=1
new Load.530 phases=1 bus1=s125.2 conn=w kw=12.870 kvar=5.864 numcust=1 kv=0.120 model=1
new Load.410 phases=1 bus1=s92.2 conn=w kw=49.150 kvar=12.318 numcust=1 kv=0.120 model=1
new Load.531 phases=1 bus1=s125.3 conn=w kw=14.350 kvar=2.045 numcust=1 kv=0.120 model=1
new Load.411 phases=1 bus1=s92.3 conn=w kw=46.060 kvar=18.204 numcust=1 kv=0.120 model=1
new Load.532 phases=1 bus1=s125.1.2 conn=d kw=31.180 kvar=25.837 numcust=1 kv=0.208 model=1
new Load.412 phases=1 bus1=s92.1.2 conn=d kw=114.190 kvar=94.621 numcust=1 kv=0.208 model=1
new Load.533 phases=1 bus1=s125.2.3 conn=d kw=29.220 kvar=21.155 numcust=1 kv=0.208 model=1
new Load.413 phases=1 bus1=s92.2.3 conn=d kw=116.180 kvar=84.113 numcust=1 kv=0.208 model=1
new Load.534 phases=1 bus1=s125.3.1 conn=d kw=29.420 kvar=23.603 numcust=1 kv=0.208 model=1
new Load.414 phases=1 bus1=s92.3.1 conn=d kw=111.200 kvar=77.618 numcust=1 kv=0.208 model=1
new Load.535 phases=1 bus1=s127.1 conn=w kw=17.740 kvar=7.557 numcust=1 kv=0.120 model=1
new Load.415 phases=1 bus1=s93.1 conn=w kw=46.310 kvar=13.507 numcust=1 kv=0.120 model=1
new Load.536 phases=1 bus1=s127.2 conn=w kw=12.200 kvar=5.197 numcust=1 kv=0.120 model=1
new Load.416 phases=1 bus1=s93.2 conn=w kw=54.300 kvar=7.737 numcust=1 kv=0.120 model=1
new Load.537 phases=1 bus1=s127.3 conn=w kw=14.880 kvar=6.780 numcust=1 kv=0.120 model=1
new Load.417 phases=1 bus1=s93.3 conn=w kw=47.130 kvar=9.570 numcust=1 kv=0.120 model=1
new Load.538 phases=1 bus1=s127.1.2 conn=d kw=33.060 kvar=28.272 numcust=1 kv=0.208 model=1
new Load.418 phases=1 bus1=s93.1.2 conn=d kw=108.930 kvar=76.034 numcust=1 kv=0.208 model=1
new Load.539 phases=1 bus1=s127.2.3 conn=d kw=35.590 kvar=29.491 numcust=1 kv=0.208 model=1
new Load.419 phases=1 bus1=s93.2.3 conn=d kw=107.460 kvar=72.214 numcust=1 kv=0.208 model=1
new Load.540 phases=1 bus1=s127.3.1 conn=d kw=28.840 kvar=20.130 numcust=1 kv=0.208 model=1
new Load.420 phases=1 bus1=s93.3.1 conn=d kw=105.160 kvar=73.402 numcust=1 kv=0.208 model=1
new Load.541 phases=1 bus1=s128.1 conn=w kw=13.530 kvar=4.447 numcust=1 kv=0.120 model=1
new Load.300 phases=1 bus1=s61.3.1 conn=d kw=70.380 kvar=49.126 numcust=1 kv=0.208 model=1
new Load.421 phases=1 bus1=s94.1 conn=w kw=46.850 kvar=6.676 numcust=1 kv=0.120 model=1
new Load.542 phases=1 bus1=s128.2 conn=w kw=13.650 kvar=3.981 numcust=1 kv=0.120 model=1
new Load.301 phases=1 bus1=s62.1 conn=w kw=12.680 kvar=4.602 numcust=1 kv=0.120 model=1
new Load.422 phases=1 bus1=s94.2 conn=w kw=47.530 kvar=13.863 numcust=1 kv=0.120 model=1
new Load.543 phases=1 bus1=s128.3 conn=w kw=15.180 kvar=3.804 numcust=1 kv=0.120 model=1
new Load.302 phases=1 bus1=s62.2 conn=w kw=13.220 kvar=4.798 numcust=1 kv=0.120 model=1
new Load.423 phases=1 bus1=s94.3 conn=w kw=40.730 kvar=16.098 numcust=1 kv=0.120 model=1
new Load.544 phases=1 bus1=s128.1.2 conn=d kw=32.540 kvar=22.713 numcust=1 kv=0.208 model=1
new Load.303 phases=1 bus1=s62.3 conn=w kw=11.860 kvar=5.404 numcust=1 kv=0.120 model=1
new Load.424 phases=1 bus1=s94.1.2 conn=d kw=116.000 kvar=93.065 numcust=1 kv=0.208 model=1
new Load.545 phases=1 bus1=s128.2.3 conn=d kw=27.980 kvar=20.257 numcust=1 kv=0.208 model=1
new Load.304 phases=1 bus1=s62.1.2 conn=d kw=32.280 kvar=22.532 numcust=1 kv=0.208 model=1
new Load.425 phases=1 bus1=s94.2.3 conn=d kw=112.350 kvar=75.500 numcust=1 kv=0.208 model=1
new Load.546 phases=1 bus1=s128.3.1 conn=d kw=34.210 kvar=27.446 numcust=1 kv=0.208 model=1
new Load.305 phases=1 bus1=s62.2.3 conn=d kw=34.950 kvar=23.487 numcust=1 kv=0.208 model=1
new Load.426 phases=1 bus1=s94.3.1 conn=d kw=105.060 kvar=87.056 numcust=1 kv=0.208 model=1
new Load.547 phases=1 bus1=s129.1 conn=w kw=12.060 kvar=4.766 numcust=1 kv=0.120 model=1
new Load.306 phases=1 bus1=s62.3.1 conn=d kw=29.750 kvar=23.089 numcust=1 kv=0.208 model=1
new Load.427 phases=1 bus1=s97.1 conn=w kw=29.940 kvar=11.833 numcust=1 kv=0.120 model=1
new Load.548 phases=1 bus1=s129.2 conn=w kw=14.890 kvar=2.122 numcust=1 kv=0.120 model=1
new Load.307 phases=1 bus1=s63.1 conn=w kw=13.060 kvar=4.740 numcust=1 kv=0.120 model=1
new Load.428 phases=1 bus1=s97.2 conn=w kw=34.540 kvar=7.014 numcust=1 kv=0.120 model=1
new Load.549 phases=1 bus1=s129.3 conn=w kw=14.960 kvar=4.917 numcust=1 kv=0.120 model=1
new Load.308 phases=1 bus1=s63.2 conn=w kw=11.520 kvar=4.907 numcust=1 kv=0.120 model=1
new Load.429 phases=1 bus1=s97.3 conn=w kw=27.650 kvar=0.000 numcust=1 kv=0.120 model=1
new Load.309 phases=1 bus1=s63.3 conn=w kw=15.280 kvar=6.962 numcust=1 kv=0.120 model=1
new Load.550 phases=1 bus1=s129.1.2 conn=d kw=28.740 kvar=21.555 numcust=1 kv=0.208 model=1
new Load.430 phases=1 bus1=s97.1.2 conn=d kw=88.650 kvar=66.487 numcust=1 kv=0.208 model=1
new Load.551 phases=1 bus1=s129.2.3 conn=d kw=36.800 kvar=27.600 numcust=1 kv=0.208 model=1
new Load.310 phases=1 bus1=s63.1.2 conn=d kw=35.060 kvar=29.052 numcust=1 kv=0.208 model=1
new Load.431 phases=1 bus1=s97.2.3 conn=d kw=78.560 kvar=67.182 numcust=1 kv=0.208 model=1
new Load.552 phases=1 bus1=s129.3.1 conn=d kw=28.390 kvar=23.525 numcust=1 kv=0.208 model=1
new Load.311 phases=1 bus1=s63.2.3 conn=d kw=31.530 kvar=20.366 numcust=1 kv=0.208 model=1
new Load.432 phases=1 bus1=s97.3.1 conn=d kw=76.200 kvar=63.141 numcust=1 kv=0.208 model=1
new Load.553 phases=1 bus1=s130.1 conn=w kw=15.360 kvar=6.071 numcust=1 kv=0.120 model=1
new Load.312 phases=1 bus1=s63.3.1 conn=d kw=32.360 kvar=22.587 numcust=1 kv=0.208 model=1
new Load.433 phases=1 bus1=s98.1 conn=w kw=40.470 kvar=13.302 numcust=1 kv=0.120 model=1
new Load.554 phases=1 bus1=s130.2 conn=w kw=14.860 kvar=2.117 numcust=1 kv=0.120 model=1
new Load.313 phases=1 bus1=s64.1 conn=w kw=54.280 kvar=23.123 numcust=1 kv=0.120 model=1
new Load.434 phases=1 bus1=s98.2 conn=w kw=36.750 kvar=12.079 numcust=1 kv=0.120 model=1
new Load.555 phases=1 bus1=s130.3 conn=w kw=11.960 kvar=3.488 numcust=1 kv=0.120 model=1
new Load.314 phases=1 bus1=s64.2 conn=w kw=48.220 kvar=9.791 numcust=1 kv=0.120 model=1
new Load.435 phases=1 bus1=s98.3 conn=w kw=38.090 kvar=7.735 numcust=1 kv=0.120 model=1
new Load.556 phases=1 bus1=s130.1.2 conn=d kw=33.060 kvar=28.272 numcust=1 kv=0.208 model=1
new Load.315 phases=1 bus1=s64.3 conn=w kw=43.590 kvar=8.851 numcust=1 kv=0.120 model=1
new Load.436 phases=1 bus1=s98.1.2 conn=d kw=87.210 kvar=67.682 numcust=1 kv=0.208 model=1
new Load.557 phases=1 bus1=s130.2.3 conn=d kw=36.160 kvar=28.063 numcust=1 kv=0.208 model=1
new Load.316 phases=1 bus1=s64.1.2 conn=d kw=125.890 kvar=91.143 numcust=1 kv=0.208 model=1
new Load.437 phases=1 bus1=s98.2.3 conn=d kw=85.780 kvar=68.820 numcust=1 kv=0.208 model=1
new Load.558 phases=1 bus1=s130.3.1 conn=d kw=37.310 kvar=26.043 numcust=1 kv=0.208 model=1
new Load.317 phases=1 bus1=s64.2.3 conn=d kw=120.310 kvar=93.371 numcust=1 kv=0.208 model=1
new Load.438 phases=1 bus1=s98.3.1 conn=d kw=91.100 kvar=70.701 numcust=1 kv=0.208 model=1
new Load.559 phases=1 bus1=s132.1 conn=w kw=17.540 kvar=2.499 numcust=1 kv=0.120 model=1
new Load.318 phases=1 bus1=s64.3.1 conn=d kw=122.470 kvar=85.485 numcust=1 kv=0.208 model=1
new Load.439 phases=1 bus1=s99.1 conn=w kw=39.980 kvar=8.118 numcust=1 kv=0.120 model=1
new Load.319 phases=1 bus1=s65.1 conn=w kw=45.340 kvar=14.903 numcust=1 kv=0.120 model=1
new Load.560 phases=1 bus1=s132.2 conn=w kw=11.780 kvar=2.392 numcust=1 kv=0.120 model=1
new Load.440 phases=1 bus1=s99.2 conn=w kw=35.850 kvar=8.985 numcust=1 kv=0.120 model=1
new Load.561 phases=1 bus1=s132.3 conn=w kw=11.770 kvar=4.652 numcust=1 kv=0.120 model=1
new Load.320 phases=1 bus1=s65.2 conn=w kw=48.490 kvar=6.909 numcust=1 kv=0.120 model=1
new Load.441 phases=1 bus1=s99.3 conn=w kw=29.330 kvar=12.495 numcust=1 kv=0.120 model=1
new Load.562 phases=1 bus1=s132.1.2 conn=d kw=31.170 kvar=25.828 numcust=1 kv=0.208 model=1
new Load.200 phases=1 bus1=s37.2 conn=w kw=12.710 kvar=3.185 numcust=1 kv=0.120 model=1
new Load.321 phases=1 bus1=s65.3 conn=w kw=54.020 kvar=7.697 numcust=1 kv=0.120 model=1
new Load.442 phases=1 bus1=s99.1.2 conn=d kw=76.510 kvar=65.428 numcust=1 kv=0.208 model=1
new Load.563 phases=1 bus1=s132.2.3 conn=d kw=31.460 kvar=21.959 numcust=1 kv=0.208 model=1
new Load.201 phases=1 bus1=s37.3 conn=w kw=14.390 kvar=2.050 numcust=1 kv=0.120 model=1
new Load.322 phases=1 bus1=s65.1.2 conn=d kw=105.360 kvar=90.100 numcust=1 kv=0.208 model=1
new Load.443 phases=1 bus1=s99.2.3 conn=d kw=80.540 kvar=54.123 numcust=1 kv=0.208 model=1
new Load.564 phases=1 bus1=s132.3.1 conn=d kw=38.320 kvar=25.751 numcust=1 kv=0.208 model=1
new Load.202 phases=1 bus1=s37.1.2 conn=d kw=37.320 kvar=27.019 numcust=1 kv=0.208 model=1
new Load.323 phases=1 bus1=s65.2.3 conn=d kw=122.000 kvar=91.500 numcust=1 kv=0.208 model=1
new Load.444 phases=1 bus1=s99.3.1 conn=d kw=91.370 kvar=59.019 numcust=1 kv=0.208 model=1
new Load.565 phases=1 bus1=s133.1 conn=w kw=13.140 kvar=4.769 numcust=1 kv=0.120 model=1
new Load.203 phases=1 bus1=s37.2.3 conn=d kw=36.930 kvar=24.817 numcust=1 kv=0.208 model=1
new Load.324 phases=1 bus1=s65.3.1 conn=d kw=124.940 kvar=90.455 numcust=1 kv=0.208 model=1
new Load.445 phases=1 bus1=s102.1 conn=w kw=25.620 kvar=10.126 numcust=1 kv=0.120 model=1
new Load.566 phases=1 bus1=s133.2 conn=w kw=13.400 kvar=3.908 numcust=1 kv=0.120 model=1
new Load.204 phases=1 bus1=s37.3.1 conn=d kw=34.430 kvar=28.530 numcust=1 kv=0.208 model=1
new Load.325 phases=1 bus1=s66.1 conn=w kw=42.670 kvar=12.445 numcust=1 kv=0.120 model=1
new Load.446 phases=1 bus1=s102.2 conn=w kw=30.270 kvar=12.895 numcust=1 kv=0.120 model=1
new Load.567 phases=1 bus1=s133.3 conn=w kw=14.450 kvar=5.711 numcust=1 kv=0.120 model=1
new Load.205 phases=1 bus1=s38.1 conn=w kw=50.330 kvar=21.440 numcust=1 kv=0.120 model=1
new Load.326 phases=1 bus1=s66.2 conn=w kw=44.750 kvar=9.087 numcust=1 kv=0.120 model=1
new Load.447 phases=1 bus1=s102.3 conn=w kw=28.270 kvar=7.085 numcust=1 kv=0.120 model=1
new Load.568 phases=1 bus1=s133.1.2 conn=d kw=36.680 kvar=30.394 numcust=1 kv=0.208 model=1
new Load.206 phases=1 bus1=s38.2 conn=w kw=55.550 kvar=21.955 numcust=1 kv=0.120 model=1
new Load.327 phases=1 bus1=s66.3 conn=w kw=53.420 kvar=15.581 numcust=1 kv=0.120 model=1
new Load.448 phases=1 bus1=s102.1.2 conn=d kw=70.130 kvar=59.973 numcust=1 kv=0.208 model=1
new Load.569 phases=1 bus1=s133.2.3 conn=d kw=30.050 kvar=21.756 numcust=1 kv=0.208 model=1
new Load.207 phases=1 bus1=s38.3 conn=w kw=51.740 kvar=10.506 numcust=1 kv=0.120 model=1
new Load.328 phases=1 bus1=s66.1.2 conn=d kw=125.460 kvar=103.960 numcust=1 kv=0.208 model=1
new Load.449 phases=1 bus1=s102.2.3 conn=d kw=65.970 kvar=46.047 numcust=1 kv=0.208 model=1
new Load.208 phases=1 bus1=s38.1.2 conn=d kw=111.430 kvar=86.479 numcust=1 kv=0.208 model=1
new Load.329 phases=1 bus1=s66.2.3 conn=d kw=126.260 kvar=97.988 numcust=1 kv=0.208 model=1
new Load.209 phases=1 bus1=s38.2.3 conn=d kw=126.130 kvar=91.317 numcust=1 kv=0.208 model=1
new Load.570 phases=1 bus1=s133.3.1 conn=d kw=28.290 kvar=21.218 numcust=1 kv=0.208 model=1
new Load.450 phases=1 bus1=s102.3.1 conn=d kw=63.650 kvar=46.082 numcust=1 kv=0.208 model=1
new Load.571 phases=1 bus1=s134.1 conn=w kw=12.340 kvar=1.758 numcust=1 kv=0.120 model=1
new Load.330 phases=1 bus1=s66.3.1 conn=d kw=115.650 kvar=77.717 numcust=1 kv=0.208 model=1
new Load.451 phases=1 bus1=s103.1 conn=w kw=11.710 kvar=4.988 numcust=1 kv=0.120 model=1
new Load.572 phases=1 bus1=s134.2 conn=w kw=15.770 kvar=5.183 numcust=1 kv=0.120 model=1
new Load.210 phases=1 bus1=s38.3.1 conn=d kw=108.740 kvar=75.901 numcust=1 kv=0.208 model=1
new Load.331 phases=1 bus1=s67.1 conn=w kw=15.890 kvar=5.767 numcust=1 kv=0.120 model=1
new Load.452 phases=1 bus1=s103.2 conn=w kw=13.030 kvar=5.150 numcust=1 kv=0.120 model=1
new Load.573 phases=1 bus1=s134.3 conn=w kw=15.820 kvar=4.614 numcust=1 kv=0.120 model=1
new Load.211 phases=1 bus1=s39.1 conn=w kw=55.530 kvar=20.155 numcust=1 kv=0.120 model=1
new Load.332 phases=1 bus1=s67.2 conn=w kw=12.320 kvar=5.248 numcust=1 kv=0.120 model=1
new Load.453 phases=1 bus1=s103.3 conn=w kw=13.550 kvar=4.454 numcust=1 kv=0.120 model=1
new Load.574 phases=1 bus1=s134.1.2 conn=d kw=36.870 kvar=24.777 numcust=1 kv=0.208 model=1
new Load.212 phases=1 bus1=s39.2 conn=w kw=41.970 kvar=0.000 numcust=1 kv=0.120 model=1
new Load.333 phases=1 bus1=s67.3 conn=w kw=13.710 kvar=5.419 numcust=1 kv=0.120 model=1
new Load.454 phases=1 bus1=s103.1.2 conn=d kw=31.970 kvar=21.484 numcust=1 kv=0.208 model=1
new Load.575 phases=1 bus1=s134.2.3 conn=d kw=32.500 kvar=25.223 numcust=1 kv=0.208 model=1
new Load.213 phases=1 bus1=s39.3 conn=w kw=54.850 kvar=18.028 numcust=1 kv=0.120 model=1
new Load.334 phases=1 bus1=s67.1.2 conn=d kw=34.860 kvar=25.238 numcust=1 kv=0.208 model=1
new Load.455 phases=1 bus1=s103.2.3 conn=d kw=33.810 kvar=24.478 numcust=1 kv=0.208 model=1
new Load.576 phases=1 bus1=s134.3.1 conn=d kw=35.790 kvar=29.657 numcust=1 kv=0.208 model=1
new Load.214 phases=1 bus1=s39.1.2 conn=d kw=131.700 kvar=109.130 numcust=1 kv=0.208 model=1
new Load.335 phases=1 bus1=s67.2.3 conn=d kw=31.690 kvar=21.296 numcust=1 kv=0.208 model=1
new Load.456 phases=1 bus1=s103.3.1 conn=d kw=33.080 kvar=27.411 numcust=1 kv=0.208 model=1
new Load.577 phases=1 bus1=s135.1 conn=w kw=13.530 kvar=2.747 numcust=1 kv=0.120 model=1
new Load.215 phases=1 bus1=s39.2.3 conn=d kw=102.860 kvar=85.233 numcust=1 kv=0.208 model=1
new Load.336 phases=1 bus1=s67.3.1 conn=d kw=35.290 kvar=25.550 numcust=1 kv=0.208 model=1
new Load.457 phases=1 bus1=s104.1 conn=w kw=13.870 kvar=5.909 numcust=1 kv=0.120 model=1
new Load.578 phases=1 bus1=s135.2 conn=w kw=14.580 kvar=3.654 numcust=1 kv=0.120 model=1
new Load.216 phases=1 bus1=s39.3.1 conn=d kw=100.920 kvar=70.443 numcust=1 kv=0.208 model=1
new Load.337 phases=1 bus1=s72.1 conn=w kw=11.810 kvar=2.960 numcust=1 kv=0.120 model=1
new Load.458 phases=1 bus1=s104.2 conn=w kw=12.710 kvar=3.185 numcust=1 kv=0.120 model=1
new Load.579 phases=1 bus1=s135.3 conn=w kw=14.480 kvar=2.940 numcust=1 kv=0.120 model=1
new Load.217 phases=1 bus1=s40.1 conn=w kw=50.670 kvar=18.391 numcust=1 kv=0.120 model=1
new Load.338 phases=1 bus1=s72.2 conn=w kw=13.580 kvar=6.187 numcust=1 kv=0.120 model=1
new Load.459 phases=1 bus1=s104.3 conn=w kw=13.160 kvar=5.996 numcust=1 kv=0.120 model=1
new Load.218 phases=1 bus1=s40.2 conn=w kw=51.210 kvar=12.834 numcust=1 kv=0.120 model=1
new Load.339 phases=1 bus1=s72.3 conn=w kw=15.460 kvar=2.203 numcust=1 kv=0.120 model=1
new Load.219 phases=1 bus1=s40.3 conn=w kw=46.990 kvar=21.409 numcust=1 kv=0.120 model=1
new Load.580 phases=1 bus1=s135.1.2 conn=d kw=35.710 kvar=28.649 numcust=1 kv=0.208 model=1
new Load.460 phases=1 bus1=s104.1.2 conn=d kw=30.440 kvar=24.421 numcust=1 kv=0.208 model=1
new Load.581 phases=1 bus1=s135.2.3 conn=d kw=31.500 kvar=26.102 numcust=1 kv=0.208 model=1
new Load.340 phases=1 bus1=s72.1.2 conn=d kw=26.980 kvar=22.356 numcust=1 kv=0.208 model=1
new Load.461 phases=1 bus1=s104.2.3 conn=d kw=30.330 kvar=25.937 numcust=1 kv=0.208 model=1
new Load.582 phases=1 bus1=s135.3.1 conn=d kw=33.860 kvar=28.057 numcust=1 kv=0.208 model=1
new Load.220 phases=1 bus1=s40.1.2 conn=d kw=133.470 kvar=93.163 numcust=1 kv=0.208 model=1
new Load.341 phases=1 bus1=s72.2.3 conn=d kw=30.490 kvar=22.867 numcust=1 kv=0.208 model=1
new Load.462 phases=1 bus1=s104.3.1 conn=d kw=31.120 kvar=23.340 numcust=1 kv=0.208 model=1
new Load.583 phases=1 bus1=s137.1 conn=w kw=11.960 kvar=2.997 numcust=1 kv=0.120 model=1
new Load.100 phases=1 bus1=s11.1.2 conn=d kw=28.590 kvar=19.956 numcust=1 kv=0.208 model=1
new Load.221 phases=1 bus1=s40.2.3 conn=d kw=137.920 kvar=92.683 numcust=1 kv=0.208 model=1
new Load.342 phases=1 bus1=s72.3.1 conn=d kw=30.710 kvar=23.834 numcust=1 kv=0.208 model=1
new Load.463 phases=1 bus1=s105.1 conn=w kw=41.400 kvar=17.636 numcust=1 kv=0.120 model=1
new Load.584 phases=1 bus1=s137.2 conn=w kw=11.980 kvar=1.707 numcust=1 kv=0.120 model=1
new Load.101 phases=1 bus1=s11.2.3 conn=d kw=35.810 kvar=26.858 numcust=1 kv=0.208 model=1
new Load.222 phases=1 bus1=s40.3.1 conn=d kw=138.710 kvar=96.820 numcust=1 kv=0.208 model=1
new Load.343 phases=1 bus1=s73.1 conn=w kw=12.070 kvar=1.720 numcust=1 kv=0.120 model=1
new Load.464 phases=1 bus1=s105.2 conn=w kw=43.960 kvar=18.727 numcust=1 kv=0.120 model=1
new Load.585 phases=1 bus1=s137.3 conn=w kw=12.320 kvar=5.613 numcust=1 kv=0.120 model=1
new Load.102 phases=1 bus1=s11.3.1 conn=d kw=29.030 kvar=21.017 numcust=1 kv=0.208 model=1
new Load.223 phases=1 bus1=s41.1 conn=w kw=14.480 kvar=6.597 numcust=1 kv=0.120 model=1
new Load.344 phases=1 bus1=s73.2 conn=w kw=12.470 kvar=4.099 numcust=1 kv=0.120 model=1
new Load.465 phases=1 bus1=s105.3 conn=w kw=33.700 kvar=15.354 numcust=1 kv=0.120 model=1
new Load.586 phases=1 bus1=s137.1.2 conn=d kw=30.180 kvar=21.066 numcust=1 kv=0.208 model=1
new Load.103 phases=1 bus1=s12.1 conn=w kw=15.650 kvar=7.130 numcust=1 kv=0.120 model=1
new Load.224 phases=1 bus1=s41.2 conn=w kw=15.580 kvar=6.158 numcust=1 kv=0.120 model=1
new Load.345 phases=1 bus1=s73.3 conn=w kw=12.480 kvar=2.534 numcust=1 kv=0.120 model=1
new Load.466 phases=1 bus1=s105.1.2 conn=d kw=99.230 kvar=79.610 numcust=1 kv=0.208 model=1
new Load.587 phases=1 bus1=s137.2.3 conn=d kw=35.650 kvar=28.601 numcust=1 kv=0.208 model=1
new Load.104 phases=1 bus1=s12.2 conn=w kw=14.770 kvar=0.000 numcust=1 kv=0.120 model=1
new Load.225 phases=1 bus1=s41.3 conn=w kw=12.830 kvar=2.605 numcust=1 kv=0.120 model=1
new Load.346 phases=1 bus1=s73.1.2 conn=d kw=34.720 kvar=29.691 numcust=1 kv=0.208 model=1
new Load.467 phases=1 bus1=s105.2.3 conn=d kw=82.350 kvar=61.763 numcust=1 kv=0.208 model=1
new Load.588 phases=1 bus1=s137.3.1 conn=d kw=28.470 kvar=21.352 numcust=1 kv=0.208 model=1
new Load.105 phases=1 bus1=s12.3 conn=w kw=11.730 kvar=2.940 numcust=1 kv=0.120 model=1
new Load.226 phases=1 bus1=s41.1.2 conn=d kw=33.870 kvar=23.641 numcust=1 kv=0.208 model=1
new Load.347 phases=1 bus1=s73.2.3 conn=d kw=31.960 kvar=26.483 numcust=1 kv=0.208 model=1
new Load.468 phases=1 bus1=s105.3.1 conn=d kw=96.230 kvar=67.169 numcust=1 kv=0.208 model=1
new Load.589 phases=1 bus1=s138.1 conn=w kw=12.850 kvar=0.000 numcust=1 kv=0.120 model=1
new Load.106 phases=1 bus1=s12.1.2 conn=d kw=30.470 kvar=20.476 numcust=1 kv=0.208 model=1
new Load.227 phases=1 bus1=s41.2.3 conn=d kw=32.610 kvar=21.064 numcust=1 kv=0.208 model=1
new Load.348 phases=1 bus1=s73.3.1 conn=d kw=31.400 kvar=24.369 numcust=1 kv=0.208 model=1
new Load.469 phases=1 bus1=s106.1 conn=w kw=40.290 kvar=8.181 numcust=1 kv=0.120 model=1
new Load.107 phases=1 bus1=s12.2.3 conn=d kw=34.060 kvar=22.888 numcust=1 kv=0.208 model=1
new Load.228 phases=1 bus1=s41.3.1 conn=d kw=30.700 kvar=20.631 numcust=1 kv=0.208 model=1
new Load.349 phases=1 bus1=s78.1 conn=w kw=15.290 kvar=2.179 numcust=1 kv=0.120 model=1
new Load.108 phases=1 bus1=s12.3.1 conn=d kw=28.340 kvar=21.255 numcust=1 kv=0.208 model=1
new Load.229 phases=1 bus1=s42.1 conn=w kw=28.950 kvar=10.507 numcust=1 kv=0.120 model=1
new Load.109 phases=1 bus1=s13.1 conn=w kw=15.740 kvar=5.713 numcust=1 kv=0.120 model=1
new Load.590 phases=1 bus1=s138.2 conn=w kw=14.490 kvar=6.602 numcust=1 kv=0.120 model=1
new Load.470 phases=1 bus1=s106.2 conn=w kw=54.790 kvar=11.126 numcust=1 kv=0.120 model=1
new Load.591 phases=1 bus1=s138.3 conn=w kw=13.280 kvar=3.873 numcust=1 kv=0.120 model=1
new Load.350 phases=1 bus1=s78.2 conn=w kw=14.960 kvar=6.816 numcust=1 kv=0.120 model=1
new Load.471 phases=1 bus1=s106.3 conn=w kw=46.930 kvar=21.382 numcust=1 kv=0.120 model=1
new Load.592 phases=1 bus1=s138.1.2 conn=d kw=37.010 kvar=30.668 numcust=1 kv=0.208 model=1
new Load.230 phases=1 bus1=s42.2 conn=w kw=23.630 kvar=5.922 numcust=1 kv=0.120 model=1
new Load.351 phases=1 bus1=s78.3 conn=w kw=12.600 kvar=5.741 numcust=1 kv=0.120 model=1
new Load.472 phases=1 bus1=s106.1.2 conn=d kw=119.140 kvar=98.723 numcust=1 kv=0.208 model=1
new Load.593 phases=1 bus1=s138.2.3 conn=d kw=26.950 kvar=17.408 numcust=1 kv=0.208 model=1
new Load.110 phases=1 bus1=s13.2 conn=w kw=13.470 kvar=4.427 numcust=1 kv=0.120 model=1
new Load.231 phases=1 bus1=s42.3 conn=w kw=28.130 kvar=4.008 numcust=1 kv=0.120 model=1
new Load.352 phases=1 bus1=s78.1.2 conn=d kw=33.500 kvar=23.383 numcust=1 kv=0.208 model=1
new Load.473 phases=1 bus1=s106.2.3 conn=d kw=118.630 kvar=82.804 numcust=1 kv=0.208 model=1
new Load.594 phases=1 bus1=s138.3.1 conn=d kw=29.640 kvar=23.780 numcust=1 kv=0.208 model=1
new Load.111 phases=1 bus1=s13.3 conn=w kw=15.210 kvar=5.520 numcust=1 kv=0.120 model=1
new Load.232 phases=1 bus1=s42.1.2 conn=d kw=72.320 kvar=52.359 numcust=1 kv=0.208 model=1
new Load.353 phases=1 bus1=s78.2.3 conn=d kw=31.460 kvar=23.595 numcust=1 kv=0.208 model=1
new Load.474 phases=1 bus1=s106.3.1 conn=d kw=108.700 kvar=70.213 numcust=1 kv=0.208 model=1
new Load.595 phases=1 bus1=s139.1 conn=w kw=16.220 kvar=4.065 numcust=1 kv=0.120 model=1
new Load.112 phases=1 bus1=s13.1.2 conn=d kw=30.600 kvar=24.550 numcust=1 kv=0.208 model=1
new Load.233 phases=1 bus1=s42.2.3 conn=d kw=60.670 kvar=50.273 numcust=1 kv=0.208 model=1
new Load.354 phases=1 bus1=s78.3.1 conn=d kw=34.090 kvar=26.457 numcust=1 kv=0.208 model=1
new Load.475 phases=1 bus1=s107.1 conn=w kw=53.320 kvar=13.363 numcust=1 kv=0.120 model=1
new Load.596 phases=1 bus1=s139.2 conn=w kw=14.700 kvar=3.684 numcust=1 kv=0.120 model=1
new Load.113 phases=1 bus1=s13.2.3 conn=d kw=33.970 kvar=21.942 numcust=1 kv=0.208 model=1
new Load.234 phases=1 bus1=s42.3.1 conn=d kw=69.800 kvar=46.906 numcust=1 kv=0.208 model=1
new Load.355 phases=1 bus1=s79.1 conn=w kw=39.080 kvar=12.845 numcust=1 kv=0.120 model=1
new Load.476 phases=1 bus1=s107.2 conn=w kw=45.650 kvar=19.447 numcust=1 kv=0.120 model=1
new Load.597 phases=1 bus1=s139.3 conn=w kw=15.300 kvar=3.107 numcust=1 kv=0.120 model=1
new Load.114 phases=1 bus1=s13.3.1 conn=d kw=33.370 kvar=23.292 numcust=1 kv=0.208 model=1
new Load.235 phases=1 bus1=s43.1 conn=w kw=24.590 kvar=6.163 numcust=1 kv=0.120 model=1
new Load.356 phases=1 bus1=s79.2 conn=w kw=35.840 kvar=14.165 numcust=1 kv=0.120 model=1
new Load.477 phases=1 bus1=s107.3 conn=w kw=48.960 kvar=20.857 numcust=1 kv=0.120 model=1
new Load.598 phases=1 bus1=s139.1.2 conn=d kw=28.150 kvar=20.380 numcust=1 kv=0.208 model=1