clock {
  timezone EST+5EDT;
  starttime '2000-01-01 0:00:00';
  stoptime '2000-01-01 0:00:00';
};
#set relax_naming_rules=1
#set profiler=1
module powerflow {
  solver_method NR;
  line_capacitance TRUE;
//  maximum_voltage_error 1e-6;
//  default_maximum_voltage_error 1e-6;
};
module generators;
module tape;
module reliability {
  report_event_log false;
};
#define VSOURCE=8002.0747
#include "test_base.glm";
#ifdef WANT_VI_DUMP
object voltdump {
  filename test_volt.csv;
  mode POLAR;
};
object currdump {
  filename test_curr.csv;
  mode POLAR;
};
#endif
