clock {
  timezone EST+5EDT;
  starttime '2000-01-01 0:00:00';
  stoptime '2000-01-01 0:00:00';
};
#set relax_naming_rules=1
#set profiler=1
module powerflow {
  solver_method NR;
  line_capacitance TRUE;
};
module generators;
module residential;
module tape;
module reliability {
	report_event_log false;
}

#define VSOURCE=66395.3
#include "ieee13assets_base.glm";

object voltdump {
  filename test_assets_volt.csv;
  mode POLAR;
};
object currdump {
  filename test_assets_curr.csv;
  mode POLAR;
};

